(PID.TID 0000.0001) 
(PID.TID 0000.0001) // ======================================================
(PID.TID 0000.0001) //                      MITgcm UV
(PID.TID 0000.0001) //                      =========
(PID.TID 0000.0001) // ======================================================
(PID.TID 0000.0001) // execution environment starting up...
(PID.TID 0000.0001) 
(PID.TID 0000.0001) // MITgcmUV version:  checkpoint68o
(PID.TID 0000.0001) // Build user:        jahn
(PID.TID 0000.0001) // Build host:        node753
(PID.TID 0000.0001) // Build date:        Mon Apr  3 13:18:55 EDT 2023
(PID.TID 0000.0001) 
(PID.TID 0000.0001) // =======================================================
(PID.TID 0000.0001) // Execution Environment parameter file "eedata"
(PID.TID 0000.0001) // =======================================================
(PID.TID 0000.0001) ># Example "eedata" file
(PID.TID 0000.0001) ># Lines beginning "#" are comments
(PID.TID 0000.0001) ># nTx - No. threads per process in X
(PID.TID 0000.0001) ># nTy - No. threads per process in Y
(PID.TID 0000.0001) > &EEPARMS
(PID.TID 0000.0001) > nTx=1,nTy=1
(PID.TID 0000.0001) > /
(PID.TID 0000.0001) ># Note: Some systems use & as the
(PID.TID 0000.0001) ># namelist terminator. Other systems
(PID.TID 0000.0001) ># use a / character (as shown here).
(PID.TID 0000.0001) 
(PID.TID 0000.0001) // =======================================================
(PID.TID 0000.0001) // Computational Grid Specification ( see files "SIZE.h" )
(PID.TID 0000.0001) //                                  ( and "eedata"       )
(PID.TID 0000.0001) // =======================================================
(PID.TID 0000.0001)      nPx =   18 ; /* No. processes in X */
(PID.TID 0000.0001)      nPy =    8 ; /* No. processes in Y */
(PID.TID 0000.0001)      nSx =    1 ; /* No. tiles in X per process */
(PID.TID 0000.0001)      nSy =    1 ; /* No. tiles in Y per process */
(PID.TID 0000.0001)      sNx =   20 ; /* Tile size in X */
(PID.TID 0000.0001)      sNy =   20 ; /* Tile size in Y */
(PID.TID 0000.0001)      OLx =    4 ; /* Tile overlap distance in X */
(PID.TID 0000.0001)      OLy =    4 ; /* Tile overlap distance in Y */
(PID.TID 0000.0001)      nTx =    1 ; /* No. threads in X per process */
(PID.TID 0000.0001)      nTy =    1 ; /* No. threads in Y per process */
(PID.TID 0000.0001)       Nr =   23 ; /* No. levels in the vertical   */
(PID.TID 0000.0001)       Nx =  360 ; /* Total domain size in X ( = nPx*nSx*sNx ) */
(PID.TID 0000.0001)       Ny =  160 ; /* Total domain size in Y ( = nPy*nSy*sNy ) */
(PID.TID 0000.0001)   nTiles =    1 ; /* Total no. tiles per process ( = nSx*nSy ) */
(PID.TID 0000.0001)   nProcs =  144 ; /* Total no. processes ( = nPx*nPy ) */
(PID.TID 0000.0001) nThreads =    1 ; /* Total no. threads per process ( = nTx*nTy ) */
(PID.TID 0000.0001) usingMPI =    T ; /* Flag used to control whether MPI is in use */
(PID.TID 0000.0001)                   /*  note: To execute a program with MPI calls */
(PID.TID 0000.0001)                   /*  it must be launched appropriately e.g     */
(PID.TID 0000.0001)                   /*  "mpirun -np 64 ......"                    */
(PID.TID 0000.0001) useCoupler=   F ; /* Flag used to control communications with   */
(PID.TID 0000.0001)                   /*  other model components, through a coupler */
(PID.TID 0000.0001) useNest2W_parent =    F ;/* Control 2-W Nesting comm */
(PID.TID 0000.0001) useNest2W_child  =    F ;/* Control 2-W Nesting comm */
(PID.TID 0000.0001) debugMode =    F ; /* print debug msg. (sequence of S/R calls)  */
(PID.TID 0000.0001) printMapIncludesZeros=    F ; /* print zeros in Std.Output maps */
(PID.TID 0000.0001) maxLengthPrt1D=   65 /* maxLength of 1D array printed to StdOut */
(PID.TID 0000.0001) 
(PID.TID 0000.0001) ======= Starting MPI parallel Run =========
(PID.TID 0000.0001)  My Processor Name (len:  7 ) = node753
(PID.TID 0000.0001)  Located at (  0,  0) on processor grid (0: 17,0:  7)
(PID.TID 0000.0001)  Origin at  (     1,     1) on global grid (1:   360,1:   160)
(PID.TID 0000.0001)  North neighbor = processor 0001
(PID.TID 0000.0001)  South neighbor = processor 0007
(PID.TID 0000.0001)   East neighbor = processor 0008
(PID.TID 0000.0001)   West neighbor = processor 0136
(PID.TID 0000.0001) // ======================================================
(PID.TID 0000.0001) // Mapping of tiles to threads
(PID.TID 0000.0001) // ======================================================
(PID.TID 0000.0001) // -o- Thread   1, tiles (   1:   1,   1:   1)
(PID.TID 0000.0001) 
(PID.TID 0000.0001) // ======================================================
(PID.TID 0000.0001) // Tile <-> Tile connectvity table
(PID.TID 0000.0001) // ======================================================
(PID.TID 0000.0001) // Tile number: 000001 (process no. = 000000)
(PID.TID 0000.0001) //        WEST: Tile = 000018, Process = 000136, Comm = messages
(PID.TID 0000.0001) //                bi = 000001, bj = 000001
(PID.TID 0000.0001) //        EAST: Tile = 000002, Process = 000008, Comm = messages
(PID.TID 0000.0001) //                bi = 000001, bj = 000001
(PID.TID 0000.0001) //       SOUTH: Tile = 000127, Process = 000007, Comm = messages
(PID.TID 0000.0001) //                bi = 000001, bj = 000001
(PID.TID 0000.0001) //       NORTH: Tile = 000019, Process = 000001, Comm = messages
(PID.TID 0000.0001) //                bi = 000001, bj = 000001
(PID.TID 0000.0001) 
(PID.TID 0000.0001)  INI_PARMS: opening model parameter file "data"
(PID.TID 0000.0001)  OPEN_COPY_DATA_FILE: opening file data
(PID.TID 0000.0001) // =======================================================
(PID.TID 0000.0001) // Parameter file "data"
(PID.TID 0000.0001) // =======================================================
(PID.TID 0000.0001) >#
(PID.TID 0000.0001) ># ******************************
(PID.TID 0000.0001) ># Model parameters
(PID.TID 0000.0001) ># Continuous equation parameters
(PID.TID 0000.0001) ># ******************************
(PID.TID 0000.0001) >&PARM01
(PID.TID 0000.0001) >tRef= 24.0 , 23.0 , 22.0 , 21.0 , 20.0 ,
(PID.TID 0000.0001) >      19.0 , 18.0 , 17.0 , 16.0 , 15.0 ,
(PID.TID 0000.0001) >      14.0 , 13.0 , 12.0 , 11.0 , 10.0 ,
(PID.TID 0000.0001) >       9.0 ,  8.0 ,  7.0 ,  6.0,   5.0 ,
(PID.TID 0000.0001) >       4.0 ,  3.0 ,  2.0 ,
(PID.TID 0000.0001) >sRef= 34.65, 34.75, 34.82, 34.87, 34.90,
(PID.TID 0000.0001) >      34.90, 34.86, 34.78, 34.69, 34.60,
(PID.TID 0000.0001) >      34.58, 34.62, 34.68, 34.72, 34.73,
(PID.TID 0000.0001) >      34.74, 34.73, 34.73, 34.72, 34.72,
(PID.TID 0000.0001) >      34.71, 34.70, 34.69,
(PID.TID 0000.0001) >no_slip_sides=.false.,
(PID.TID 0000.0001) >no_slip_bottom=.TRUE.,
(PID.TID 0000.0001) >viscAz=1.E-3,
(PID.TID 0000.0001) >viscAh=1.E4,
(PID.TID 0000.0001) >diffKhT=1.E2,
(PID.TID 0000.0001) >diffKzT=1.E-5,
(PID.TID 0000.0001) >diffKhS=1.E2,
(PID.TID 0000.0001) >diffKzS=1.E-5,
(PID.TID 0000.0001) >beta=1.E-11,
(PID.TID 0000.0001) >tAlpha=2.E-4,
(PID.TID 0000.0001) >sBeta =7.4E-4,
(PID.TID 0000.0001) >gravity=9.81,
(PID.TID 0000.0001) >gBaro=9.81,
(PID.TID 0000.0001) >rigidLid=.FALSE.,
(PID.TID 0000.0001) >implicitFreeSurface=.true.,
(PID.TID 0000.0001) >eosType='POLY3',
(PID.TID 0000.0001) >saltStepping=.TRUE.,
(PID.TID 0000.0001) >tempStepping=.TRUE.,
(PID.TID 0000.0001) >momStepping=.TRUE.,
(PID.TID 0000.0001) >implicitDiffusion=.true.,
(PID.TID 0000.0001) >implicitViscosity=.true.,
(PID.TID 0000.0001) >allowFreezing=.false.,
(PID.TID 0000.0001) >useSingleCpuIO=.TRUE.,
(PID.TID 0000.0001) >useCDscheme=.FALSE.,
(PID.TID 0000.0001) >tempAdvScheme = 3,
(PID.TID 0000.0001) >saltAdvScheme = 3,
(PID.TID 0000.0001) >readBinaryPrec= 32,
(PID.TID 0000.0001) >writeBinaryPrec= 32,
(PID.TID 0000.0001) >/
(PID.TID 0000.0001) >
(PID.TID 0000.0001) ># **************************
(PID.TID 0000.0001) ># Elliptic solver parameters
(PID.TID 0000.0001) ># **************************
(PID.TID 0000.0001) >&PARM02
(PID.TID 0000.0001) >cg2dMaxIters=300,
(PID.TID 0000.0001) >cg2dTargetResidual=1.E-7,
(PID.TID 0000.0001) >/
(PID.TID 0000.0001) >
(PID.TID 0000.0001) ># ************************
(PID.TID 0000.0001) ># Time stepping parameters
(PID.TID 0000.0001) ># ************************
(PID.TID 0000.0001) >&PARM03
(PID.TID 0000.0001) > nIter0=0,
(PID.TID 0000.0001) > pickupSuff='darwin',
(PID.TID 0000.0001) ># nEndIter=25920,
(PID.TID 0000.0001) > nTimeSteps=4,
(PID.TID 0000.0001) > deltaTmom=3600.,
(PID.TID 0000.0001) > deltaTtracer=3600.,
(PID.TID 0000.0001) > deltaTClock =3600.,
(PID.TID 0000.0001) > abEps=0.1,
(PID.TID 0000.0001) > pChkptFreq  = 31104000.,
(PID.TID 0000.0001) > chkptFreq   = 31104000.,
(PID.TID 0000.0001) ># dumpFreq    = 31104000.,
(PID.TID 0000.0001) > dumpInitAndLast=.FALSE.,
(PID.TID 0000.0001) ># taveFreq    = 31104000.,
(PID.TID 0000.0001) >#taveFreq    = 2592000.,
(PID.TID 0000.0001) ># monitorFreq = 2592000.,
(PID.TID 0000.0001) >#monitorFreq = 86400.,
(PID.TID 0000.0001) ># monitorFreq = 31104000.,
(PID.TID 0000.0001) > monitorFreq = 1.,
(PID.TID 0000.0001) > tauThetaClimRelax=0.,
(PID.TID 0000.0001) > tauSaltClimRelax=0.,
(PID.TID 0000.0001) > periodicExternalForcing=.TRUE.,
(PID.TID 0000.0001) > externForcingPeriod=2592000.,
(PID.TID 0000.0001) > externForcingCycle=31104000.,
(PID.TID 0000.0001) >/
(PID.TID 0000.0001) >
(PID.TID 0000.0001) ># *******************
(PID.TID 0000.0001) ># Gridding parameters
(PID.TID 0000.0001) ># *******************
(PID.TID 0000.0001) >&PARM04
(PID.TID 0000.0001) >usingCartesianGrid=.FALSE.,
(PID.TID 0000.0001) >usingSphericalPolarGrid=.TRUE.,
(PID.TID 0000.0001) >delX=360*1.E0,
(PID.TID 0000.0001) >delY=160*1.E0,
(PID.TID 0000.0001) >delZ=10.,10.,15.,20.,20.,25.,35.,50.,75.,
(PID.TID 0000.0001) >100.,150.,200.,275.,350.,415.,450.,500.,
(PID.TID 0000.0001) >500.,500.,500.,500.,500.,500.,
(PID.TID 0000.0001) >xgOrigin=0,
(PID.TID 0000.0001) >ygOrigin=-80.,
(PID.TID 0000.0001) >/
(PID.TID 0000.0001) >
(PID.TID 0000.0001) ># **********
(PID.TID 0000.0001) ># Data Files
(PID.TID 0000.0001) ># **********
(PID.TID 0000.0001) >&PARM05
(PID.TID 0000.0001) >bathyFile=       'input_ecco/bathy_fl.bin',
(PID.TID 0000.0001) >zonalWindFile=   '',
(PID.TID 0000.0001) >meridWindFile=   '',
(PID.TID 0000.0001) >thetaClimFile=   '',
(PID.TID 0000.0001) >saltClimFile=    '',
(PID.TID 0000.0001) >surfQFile=       '',
(PID.TID 0000.0001) >EmPmRFile=       '',
(PID.TID 0000.0001) >/
(PID.TID 0000.0001) 
(PID.TID 0000.0001)  INI_PARMS ; starts to read PARM01
(PID.TID 0000.0001)  INI_PARMS ; read PARM01 : OK
(PID.TID 0000.0001)  INI_PARMS ; starts to read PARM02
(PID.TID 0000.0001)  INI_PARMS ; read PARM02 : OK
(PID.TID 0000.0001)  INI_PARMS ; starts to read PARM03
(PID.TID 0000.0001)  INI_PARMS ; read PARM03 : OK
(PID.TID 0000.0001)  INI_PARMS ; starts to read PARM04
(PID.TID 0000.0001)  INI_PARMS ; read PARM04 : OK
(PID.TID 0000.0001)  INI_PARMS ; starts to read PARM05
(PID.TID 0000.0001)  INI_PARMS ; read PARM05 : OK
(PID.TID 0000.0001)  INI_PARMS: finished reading file "data"
(PID.TID 0000.0001)  PACKAGES_BOOT: opening data.pkg
(PID.TID 0000.0001)  OPEN_COPY_DATA_FILE: opening file data.pkg
(PID.TID 0000.0001) // =======================================================
(PID.TID 0000.0001) // Parameter file "data.pkg"
(PID.TID 0000.0001) // =======================================================
(PID.TID 0000.0001) ># Packages
(PID.TID 0000.0001) > &PACKAGES
(PID.TID 0000.0001) > useGMRedi=.TRUE.
(PID.TID 0000.0001) > usePTRACERS=.TRUE.
(PID.TID 0000.0001) > useGCHEM=.TRUE.,
(PID.TID 0000.0001) > useRADTRANS=.TRUE.
(PID.TID 0000.0001) > useKPP=.TRUE.,
(PID.TID 0000.0001) > useMNC=.TRUE.,
(PID.TID 0000.0001) > useEXF=.TRUE.,
(PID.TID 0000.0001) > useCAL=.TRUE.,
(PID.TID 0000.0001) > useOFFLINE=.TRUE.,
(PID.TID 0000.0001) > useDIAGNOSTICS=.TRUE.,
(PID.TID 0000.0001) > /
(PID.TID 0000.0001) 
(PID.TID 0000.0001)  PACKAGES_BOOT: finished reading data.pkg
(PID.TID 0000.0001)  PACKAGES_BOOT: On/Off package Summary
 --------  pkgs with a standard "usePKG" On/Off switch in "data.pkg":  --------
 pkg/kpp                  compiled   and   used ( useKPP                   = T )
 pkg/gmredi               compiled   and   used ( useGMRedi                = T )
 pkg/cal                  compiled   and   used ( useCAL                   = T )
 pkg/exf                  compiled   and   used ( useEXF                   = T )
 pkg/sbo                  compiled but not used ( useSBO                   = F )
 pkg/radtrans             compiled   and   used ( useRADTRANS              = T )
 pkg/ptracers             compiled   and   used ( usePTRACERS              = T )
 pkg/gchem                compiled   and   used ( useGCHEM                 = T )
 pkg/offline              compiled   and   used ( useOffLine               = T )
 pkg/diagnostics          compiled   and   used ( useDiagnostics           = T )
 pkg/mnc                  compiled   and   used ( useMNC                   = T )
 -------- pkgs without standard "usePKG" On/Off switch in "data.pkg":  --------
 pkg/generic_advdiff      compiled   and   used ( useGAD                   = T )
 pkg/mom_common           compiled   and   used ( momStepping              = T )
 pkg/mom_vecinv           compiled but not used ( +vectorInvariantMomentum = F )
 pkg/mom_fluxform         compiled   and   used ( & not vectorInvariantMom = T )
 pkg/monitor              compiled   and   used ( monitorFreq > 0.         = T )
 pkg/timeave              compiled but not used ( taveFreq > 0.            = F )
 pkg/rw                   compiled   and   used
 pkg/mdsio                compiled   and   used
(PID.TID 0000.0001)  PACKAGES_BOOT: End of package Summary
(PID.TID 0000.0001) 
(PID.TID 0000.0001)  MNC_READPARMS: opening file 'data.mnc'
(PID.TID 0000.0001)  OPEN_COPY_DATA_FILE: opening file data.mnc
(PID.TID 0000.0001) // =======================================================
(PID.TID 0000.0001) // Parameter file "data.mnc"
(PID.TID 0000.0001) // =======================================================
(PID.TID 0000.0001) ># Example "data.mnc" file
(PID.TID 0000.0001) ># Lines beginning "#" are comments
(PID.TID 0000.0001) > &MNC_01
(PID.TID 0000.0001) ># mnc_echo_gvtypes=.FALSE.,
(PID.TID 0000.0001) ># mnc_use_indir=.FALSE.,
(PID.TID 0000.0001) > mnc_use_outdir=.TRUE.,
(PID.TID 0000.0001) > mnc_outdir_str='mnc_test_',
(PID.TID 0000.0001) ># mnc_outdir_date=.TRUE.,
(PID.TID 0000.0001) > monitor_mnc=.FALSE.,
(PID.TID 0000.0001) > snapshot_mnc=.TRUE.,
(PID.TID 0000.0001) > timeave_mnc=.TRUE.,
(PID.TID 0000.0001) > pickup_read_mnc=.FALSE.,
(PID.TID 0000.0001) > pickup_write_mnc=.FALSE.,
(PID.TID 0000.0001) > mnc_filefreq = 2592000.
(PID.TID 0000.0001) > mnc_max_fsize=1E12,
(PID.TID 0000.0001) > &
(PID.TID 0000.0001) ># Note: Some systems use & as the
(PID.TID 0000.0001) ># namelist terminator. Other systems
(PID.TID 0000.0001) ># use a / character.
(PID.TID 0000.0001) 
(PID.TID 0000.0001)  MNC_READPARMS: finished reading data.mnc
(PID.TID 0000.0001) CAL_READPARMS: opening data.cal
(PID.TID 0000.0001)  OPEN_COPY_DATA_FILE: opening file data.cal
(PID.TID 0000.0001) // =======================================================
(PID.TID 0000.0001) // Parameter file "data.cal"
(PID.TID 0000.0001) // =======================================================
(PID.TID 0000.0001) ># *******************
(PID.TID 0000.0001) ># Calendar Parameters
(PID.TID 0000.0001) ># *******************
(PID.TID 0000.0001) > &CAL_NML
(PID.TID 0000.0001) > TheCalendar='model',
(PID.TID 0000.0001) > startDate_1=20000101,
(PID.TID 0000.0001) > startDate_2=000000,
(PID.TID 0000.0001) > calendarDumps = .TRUE.
(PID.TID 0000.0001) > &
(PID.TID 0000.0001) 
(PID.TID 0000.0001) CAL_READPARMS: finished reading data.cal
(PID.TID 0000.0001) EXF_READPARMS: opening data.exf
(PID.TID 0000.0001)  OPEN_COPY_DATA_FILE: opening file data.exf
(PID.TID 0000.0001) // =======================================================
(PID.TID 0000.0001) // Parameter file "data.exf"
(PID.TID 0000.0001) // =======================================================
(PID.TID 0000.0001) ># *********************
(PID.TID 0000.0001) ># External Forcing Data
(PID.TID 0000.0001) ># *********************
(PID.TID 0000.0001) >#
(PID.TID 0000.0001) > &EXF_NML_01
(PID.TID 0000.0001) > exf_iprec         = 32,
(PID.TID 0000.0001) > exf_yftype        = 'RL',
(PID.TID 0000.0001) ># useExfYearlyFields= .TRUE.,
(PID.TID 0000.0001) ># twoDigitYear      = .TRUE.,
(PID.TID 0000.0001) > useExfCheckRange  = .FALSE.,
(PID.TID 0000.0001) > repeatPeriod = 31104000.,
(PID.TID 0000.0001) > &
(PID.TID 0000.0001) >#
(PID.TID 0000.0001) > &EXF_NML_02
(PID.TID 0000.0001) > &
(PID.TID 0000.0001) >#
(PID.TID 0000.0001) > &EXF_NML_03
(PID.TID 0000.0001) > &
(PID.TID 0000.0001) >#
(PID.TID 0000.0001) > &EXF_NML_04
(PID.TID 0000.0001) > &
(PID.TID 0000.0001) 
(PID.TID 0000.0001) EXF_READPARMS: reading EXF_NML_01
(PID.TID 0000.0001) EXF_READPARMS: reading EXF_NML_02
(PID.TID 0000.0001) EXF_READPARMS: reading EXF_NML_03
(PID.TID 0000.0001) EXF_READPARMS: finished reading data.exf
(PID.TID 0000.0001)  KPP_READPARMS: opening data.kpp
(PID.TID 0000.0001)  OPEN_COPY_DATA_FILE: opening file data.kpp
(PID.TID 0000.0001) // =======================================================
(PID.TID 0000.0001) // Parameter file "data.kpp"
(PID.TID 0000.0001) // =======================================================
(PID.TID 0000.0001) >#
(PID.TID 0000.0001) ># ***************
(PID.TID 0000.0001) ># Open boundaries
(PID.TID 0000.0001) ># ***************
(PID.TID 0000.0001) > &KPP_PARM01
(PID.TID 0000.0001) ># KPPwriteState   = .TRUE.,
(PID.TID 0000.0001) > &
(PID.TID 0000.0001) 
(PID.TID 0000.0001)  KPP_READPARMS ; starts to read KPP_PARM01
(PID.TID 0000.0001)  KPP_READPARMS ; read KPP_PARM01 : OK
(PID.TID 0000.0001)  KPP_READPARMS: finished reading data.kpp
(PID.TID 0000.0001)  GM_READPARMS: opening data.gmredi
(PID.TID 0000.0001)  OPEN_COPY_DATA_FILE: opening file data.gmredi
(PID.TID 0000.0001) // =======================================================
(PID.TID 0000.0001) // Parameter file "data.gmredi"
(PID.TID 0000.0001) // =======================================================
(PID.TID 0000.0001) ># GM+Redi package parameters:
(PID.TID 0000.0001) >#     GM_Small_Number  :: epsilon used in computing the slope
(PID.TID 0000.0001) >#     GM_slopeSqCutoff :: slope^2 cut-off value
(PID.TID 0000.0001) >
(PID.TID 0000.0001) >#-from MOM :
(PID.TID 0000.0001) ># GM_background_K:      G & Mc.W  diffusion coefficient
(PID.TID 0000.0001) ># GM_maxSlope    :      max slope of isopycnals
(PID.TID 0000.0001) ># GM_Scrit       :      transition for scaling diffusion coefficient
(PID.TID 0000.0001) ># GM_Sd          :      half width scaling for diffusion coefficient
(PID.TID 0000.0001) ># GM_taper_scheme:      slope clipping or one of the tapering schemes
(PID.TID 0000.0001) ># GM_Kmin_horiz  :      horizontal diffusion minimum value
(PID.TID 0000.0001) >
(PID.TID 0000.0001) >#-Option parameters (needs to "define" options in GMREDI_OPTIONS.h")
(PID.TID 0000.0001) ># GM_isopycK     :      isopycnal diffusion coefficient
(PID.TID 0000.0001) >(default=GM_background_K)
(PID.TID 0000.0001) ># GM_AdvForm     :      turn on GM Advective form       (default=Skew flux
(PID.TID 0000.0001) >form)
(PID.TID 0000.0001) >
(PID.TID 0000.0001) > &GM_PARM01
(PID.TID 0000.0001) >  GM_Small_Number    = 1.D-20,
(PID.TID 0000.0001) >  GM_slopeSqCutoff   = 1.D+08,
(PID.TID 0000.0001) >  GM_AdvForm         = .FALSE.,
(PID.TID 0000.0001) >  GM_isopycK         = 1.D+3,
(PID.TID 0000.0001) >  GM_background_K    = 1.D+3,
(PID.TID 0000.0001) >  GM_maxSlope        = 1.D-2,
(PID.TID 0000.0001) >  GM_taper_scheme    = 'dm95',
(PID.TID 0000.0001) >  GM_Kmin_horiz      = 50.,
(PID.TID 0000.0001) >  GM_Scrit           = 4.D-3,
(PID.TID 0000.0001) >  GM_Sd              = 1.D-3,
(PID.TID 0000.0001) >#
(PID.TID 0000.0001) >###  GM_Visbeck_alpha   = 1.5D-2,
(PID.TID 0000.0001) >###  GM_Visbeck_alpha   = 0.D0,
(PID.TID 0000.0001) >###  GM_Visbeck_length  = 2.D+5,
(PID.TID 0000.0001) >###  GM_Visbeck_depth   = 1.D+3,
(PID.TID 0000.0001) >###  GM_Visbeck_maxval_K= 2.5D+3,
(PID.TID 0000.0001) > &
(PID.TID 0000.0001) >
(PID.TID 0000.0001) 
(PID.TID 0000.0001)  GM_READPARMS: finished reading data.gmredi
(PID.TID 0000.0001)  RADTRANS_READPARMS: opening data.radtrans
(PID.TID 0000.0001)  OPEN_COPY_DATA_FILE: opening file data.radtrans
(PID.TID 0000.0001) // =======================================================
(PID.TID 0000.0001) // Parameter file "data.radtrans"
(PID.TID 0000.0001) // =======================================================
(PID.TID 0000.0001) > &RADTRANS_FORCING_PARAMS
(PID.TID 0000.0001) > RT_EdFile( 1)='input_ecco/ecco_oasim_edp01_below.bin',
(PID.TID 0000.0001) > RT_EdFile( 2)='input_ecco/ecco_oasim_edp02_below.bin',
(PID.TID 0000.0001) > RT_EdFile( 3)='input_ecco/ecco_oasim_edp03_below.bin',
(PID.TID 0000.0001) > RT_EdFile( 4)='input_ecco/ecco_oasim_edp04_below.bin',
(PID.TID 0000.0001) > RT_EdFile( 5)='input_ecco/ecco_oasim_edp05_below.bin',
(PID.TID 0000.0001) > RT_EdFile( 6)='input_ecco/ecco_oasim_edp06_below.bin',
(PID.TID 0000.0001) > RT_EdFile( 7)='input_ecco/ecco_oasim_edp07_below.bin',
(PID.TID 0000.0001) > RT_EdFile( 8)='input_ecco/ecco_oasim_edp08_below.bin',
(PID.TID 0000.0001) > RT_EdFile( 9)='input_ecco/ecco_oasim_edp09_below.bin',
(PID.TID 0000.0001) > RT_EdFile(10)='input_ecco/ecco_oasim_edp10_below.bin',
(PID.TID 0000.0001) > RT_EdFile(11)='input_ecco/ecco_oasim_edp11_below.bin',
(PID.TID 0000.0001) > RT_EdFile(12)='input_ecco/ecco_oasim_edp12_below.bin',
(PID.TID 0000.0001) > RT_EdFile(13)='input_ecco/ecco_oasim_edp13_below.bin',
(PID.TID 0000.0001) > RT_EsFile( 1)='input_ecco/ecco_oasim_esp01_below.bin',
(PID.TID 0000.0001) > RT_EsFile( 2)='input_ecco/ecco_oasim_esp02_below.bin',
(PID.TID 0000.0001) > RT_EsFile( 3)='input_ecco/ecco_oasim_esp03_below.bin',
(PID.TID 0000.0001) > RT_EsFile( 4)='input_ecco/ecco_oasim_esp04_below.bin',
(PID.TID 0000.0001) > RT_EsFile( 5)='input_ecco/ecco_oasim_esp05_below.bin',
(PID.TID 0000.0001) > RT_EsFile( 6)='input_ecco/ecco_oasim_esp06_below.bin',
(PID.TID 0000.0001) > RT_EsFile( 7)='input_ecco/ecco_oasim_esp07_below.bin',
(PID.TID 0000.0001) > RT_EsFile( 8)='input_ecco/ecco_oasim_esp08_below.bin',
(PID.TID 0000.0001) > RT_EsFile( 9)='input_ecco/ecco_oasim_esp09_below.bin',
(PID.TID 0000.0001) > RT_EsFile(10)='input_ecco/ecco_oasim_esp10_below.bin',
(PID.TID 0000.0001) > RT_EsFile(11)='input_ecco/ecco_oasim_esp11_below.bin',
(PID.TID 0000.0001) > RT_EsFile(12)='input_ecco/ecco_oasim_esp12_below.bin',
(PID.TID 0000.0001) > RT_EsFile(13)='input_ecco/ecco_oasim_esp13_below.bin',
(PID.TID 0000.0001) > RT_E_period= -12.,
(PID.TID 0000.0001) >#
(PID.TID 0000.0001) > RT_icefile = 'eccov3/SIarea.bin',
(PID.TID 0000.0001) > RT_icestartdate1 = 19990101,
(PID.TID 0000.0001) > RT_icestartdate2 = 120000,
(PID.TID 0000.0001) > RT_iceperiod     = 86400.0,
(PID.TID 0000.0001) > /
(PID.TID 0000.0001) > &RADTRANS_PARAMS
(PID.TID 0000.0001) > RT_wbEdges=400,412.5,437.5,462.5,487.5,512.5,537.5,562.5,587.5,612.5,637.5,662.5,687.5,700,
(PID.TID 0000.0001) > RT_wbRefWLs=400,425,450,475,500,525,550,575,600,625,650,675,700,
(PID.TID 0000.0001) > RT_kmax=22,
(PID.TID 0000.0001) > RT_useMeanCosSolz=.TRUE.,
(PID.TID 0000.0001) > /
(PID.TID 0000.0001) 
(PID.TID 0000.0001)  ===================================
(PID.TID 0000.0001)  PTRACERS_READPARMS: opening data.ptracers
(PID.TID 0000.0001)  OPEN_COPY_DATA_FILE: opening file data.ptracers
(PID.TID 0000.0001) // =======================================================
(PID.TID 0000.0001) // Parameter file "data.ptracers"
(PID.TID 0000.0001) // =======================================================
(PID.TID 0000.0001) > &PTRACERS_PARM01
(PID.TID 0000.0001) > PTRACERS_numInUse= 36,
(PID.TID 0000.0001) > PTRACERS_Iter0= 0,
(PID.TID 0000.0001) >#
(PID.TID 0000.0001) > PTRACERS_advScheme=36*33,
(PID.TID 0000.0001) > PTRACERS_diffKh=36*0.E3,
(PID.TID 0000.0001) > PTRACERS_diffKr=36*1.E-5,
(PID.TID 0000.0001) > PTRACERS_useGMRedi=36*.TRUE.,
(PID.TID 0000.0001) > PTRACERS_useKPP=36*.TRUE.,
(PID.TID 0000.0001) >#
(PID.TID 0000.0001) >       PTRACERS_names(1)= 'DIC',
(PID.TID 0000.0001) >       PTRACERS_names(4)= 'NH4',
(PID.TID 0000.0001) >       PTRACERS_names(3)= 'NO2',
(PID.TID 0000.0001) >       PTRACERS_names(2)= 'NO3',
(PID.TID 0000.0001) >       PTRACERS_names(5)= 'PO4',
(PID.TID 0000.0001) >       PTRACERS_names(7)= 'SiO2',
(PID.TID 0000.0001) >       PTRACERS_names(6)= 'FeT',
(PID.TID 0000.0001) >       PTRACERS_names(8)= 'DOC',
(PID.TID 0000.0001) >       PTRACERS_names(9)= 'DON',
(PID.TID 0000.0001) >       PTRACERS_names(10)= 'DOP',
(PID.TID 0000.0001) >       PTRACERS_names(11)= 'DOFe',
(PID.TID 0000.0001) >       PTRACERS_names(12)= 'POC',
(PID.TID 0000.0001) >       PTRACERS_names(13)= 'PON',
(PID.TID 0000.0001) >       PTRACERS_names(14)= 'POP',
(PID.TID 0000.0001) >       PTRACERS_names(16)= 'POSi',
(PID.TID 0000.0001) >       PTRACERS_names(15)= 'POFe',
(PID.TID 0000.0001) >       PTRACERS_names(17)= 'PIC',
(PID.TID 0000.0001) >       PTRACERS_names(18)= 'ALK',
(PID.TID 0000.0001) >       PTRACERS_names(19)= 'O2',
(PID.TID 0000.0001) >       PTRACERS_names(20)= 'CDOM01',
(PID.TID 0000.0001) >       PTRACERS_names(21)= 'c01',
(PID.TID 0000.0001) >       PTRACERS_names(22)= 'c02',
(PID.TID 0000.0001) >       PTRACERS_names(23)= 'c03',
(PID.TID 0000.0001) >       PTRACERS_names(24)= 'c04',
(PID.TID 0000.0001) >       PTRACERS_names(25)= 'n01',
(PID.TID 0000.0001) >       PTRACERS_names(26)= 'n02',
(PID.TID 0000.0001) >       PTRACERS_names(27)= 'n03',
(PID.TID 0000.0001) >       PTRACERS_names(28)= 'n04',
(PID.TID 0000.0001) >       PTRACERS_names(29)= 'p01',
(PID.TID 0000.0001) >       PTRACERS_names(30)= 'p02',
(PID.TID 0000.0001) >       PTRACERS_names(31)= 'p03',
(PID.TID 0000.0001) >       PTRACERS_names(32)= 'p04',
(PID.TID 0000.0001) >       PTRACERS_names(33)= 'fe01',
(PID.TID 0000.0001) >       PTRACERS_names(34)= 'fe02',
(PID.TID 0000.0001) >       PTRACERS_names(35)= 'fe03',
(PID.TID 0000.0001) >       PTRACERS_names(36)= 'fe04',
(PID.TID 0000.0001) >
(PID.TID 0000.0001) >
(PID.TID 0000.0001) > PTRACERS_initialFile(1)='input_ecco/glodap_tco2_ann-3d.bin',
(PID.TID 0000.0001) > PTRACERS_initialFile(4)='DARWIN_ECCO_run17/nh4_y2000.data',
(PID.TID 0000.0001) > PTRACERS_initialFile(3)='DARWIN_ECCO_run17/no2_y2000.data',
(PID.TID 0000.0001) > PTRACERS_initialFile(2)='input_ecco/lev01_nitrate_ann-3d.bin',
(PID.TID 0000.0001) > PTRACERS_initialFile(5)='input_ecco/lev01_phosphate_ann-3d.bin',
(PID.TID 0000.0001) > PTRACERS_initialFile(7)='input_ecco/lev01_silicate_ann-3d.bin ',
(PID.TID 0000.0001) > PTRACERS_initialFile(6)='DARWIN_ECCO_run17/fet_y2000.data',
(PID.TID 0000.0001) > PTRACERS_initialFile(8)='DARWIN_ECCO_run17/doc_y2000.data',
(PID.TID 0000.0001) > PTRACERS_initialFile(9)='DARWIN_ECCO_run17/don_y2000.data',
(PID.TID 0000.0001) > PTRACERS_initialFile(10)='DARWIN_ECCO_run17/dop_y2000.data',
(PID.TID 0000.0001) > PTRACERS_initialFile(11)='DARWIN_ECCO_run17/dofe_y2000.data',
(PID.TID 0000.0001) > PTRACERS_initialFile(12)='DARWIN_ECCO_run17/poc_y2000.data',
(PID.TID 0000.0001) > PTRACERS_initialFile(13)='DARWIN_ECCO_run17/pon_y2000.data',
(PID.TID 0000.0001) > PTRACERS_initialFile(14)='DARWIN_ECCO_run17/pop_y2000.data',
(PID.TID 0000.0001) > PTRACERS_initialFile(16)='DARWIN_ECCO_run17/posi_y2000.data',
(PID.TID 0000.0001) > PTRACERS_initialFile(15)='DARWIN_ECCO_run17/pofe_y2000.data',
(PID.TID 0000.0001) > PTRACERS_initialFile(17)='DARWIN_ECCO_run17/pic_y2000.data',
(PID.TID 0000.0001) > PTRACERS_initialFile(18)='input_ecco/glodap_alk_ann-3d.bin',
(PID.TID 0000.0001) > PTRACERS_initialFile(19)='input_ecco/lev01_oxygen_ann-3d.bin',
(PID.TID 0000.0001) > PTRACERS_initialFile(20)='input_ecco/CDOM_run129abb4.bin',
(PID.TID 0000.0001) > PTRACERS_initialFile(21)='DARWIN_ECCO_run17/phy_6species_y2000.data',
(PID.TID 0000.0001) > PTRACERS_initialFile(22)='DARWIN_ECCO_run17/phy_6species_y2000.data',
(PID.TID 0000.0001) > PTRACERS_initialFile(23)='DARWIN_ECCO_run17/phy_6species_y2000.data',
(PID.TID 0000.0001) > PTRACERS_initialFile(24)='DARWIN_ECCO_run17/phy_6species_y2000.data',
(PID.TID 0000.0001) > PTRACERS_initialFile(25)='DARWIN_ECCO_run17/phy_6speciesn_y2000.data',
(PID.TID 0000.0001) > PTRACERS_initialFile(26)='DARWIN_ECCO_run17/phy_6speciesn_y2000.data',
(PID.TID 0000.0001) > PTRACERS_initialFile(27)='DARWIN_ECCO_run17/phy_6speciesn_y2000.data',
(PID.TID 0000.0001) > PTRACERS_initialFile(28)='DARWIN_ECCO_run17/phy_6speciesn_y2000.data',
(PID.TID 0000.0001) > PTRACERs_initialFile(29)='DARWIN_ECCO_run17/phy_6speciesp_y2000.data'
(PID.TID 0000.0001) > PTRACERs_initialFile(30)='DARWIN_ECCO_run17/phy_6speciesp_y2000.data'
(PID.TID 0000.0001) > PTRACERs_initialFile(31)='DARWIN_ECCO_run17/phy_6speciesp_y2000.data'
(PID.TID 0000.0001) > PTRACERs_initialFile(32)='DARWIN_ECCO_run17/phy_6speciesp_y2000.data'
(PID.TID 0000.0001) > PTRACERs_initialFile(33)='DARWIN_ECCO_run17/phy_6speciesfe_y2000.data'
(PID.TID 0000.0001) > PTRACERs_initialFile(34)='DARWIN_ECCO_run17/phy_6speciesfe_y2000.data'
(PID.TID 0000.0001) > PTRACERs_initialFile(35)='DARWIN_ECCO_run17/phy_6speciesfe_y2000.data'
(PID.TID 0000.0001) > PTRACERs_initialFile(36)='DARWIN_ECCO_run17/phy_6speciesfe_y2000.data'
(PID.TID 0000.0001) > &
(PID.TID 0000.0001) 
(PID.TID 0000.0001)  PTRACERS_READPARMS: finished reading data.ptracers
(PID.TID 0000.0001)  GCHEM_READPARMS: opening data.gchem
(PID.TID 0000.0001)  OPEN_COPY_DATA_FILE: opening file data.gchem
(PID.TID 0000.0001) // =======================================================
(PID.TID 0000.0001) // Parameter file "data.gchem"
(PID.TID 0000.0001) // =======================================================
(PID.TID 0000.0001) > &GCHEM_PARM01
(PID.TID 0000.0001) >  useDARWIN=.TRUE.,
(PID.TID 0000.0001) >  nsubtime=1,
(PID.TID 0000.0001) > /
(PID.TID 0000.0001) 
(PID.TID 0000.0001)  GCHEM_READPARMS: finished reading data.gchem
(PID.TID 0000.0001)  DARWIN_READPARMS: opening data.darwin
(PID.TID 0000.0001)  OPEN_COPY_DATA_FILE: opening file data.darwin
(PID.TID 0000.0001) // =======================================================
(PID.TID 0000.0001) // Parameter file "data.darwin"
(PID.TID 0000.0001) // =======================================================
(PID.TID 0000.0001) >#######################
(PID.TID 0000.0001) > &DARWIN_FORCING_PARAMS
(PID.TID 0000.0001) > ironFile='input_ecco/mahowald2009_solubile_current_smooth_oce_mth-2d.bin',
(PID.TID 0000.0001) > ironPeriod= -12.,
(PID.TID 0000.0001) > darwin_inscal_iron= 2000.,
(PID.TID 0000.0001) >#
(PID.TID 0000.0001) > windFile='input_ecco/tren_speed_mth-2d.bin',
(PID.TID 0000.0001) > windPeriod= -12.,
(PID.TID 0000.0001) >#
(PID.TID 0000.0001) > icefile = 'eccov3/SIarea.bin',
(PID.TID 0000.0001) > icestartdate1 = 19990101,
(PID.TID 0000.0001) > icestartdate2 = 120000,
(PID.TID 0000.0001) > iceperiod     = 86400.0,
(PID.TID 0000.0001) >#
(PID.TID 0000.0001) > pCO2const = 278E-6,
(PID.TID 0000.0001) > /
(PID.TID 0000.0001) >########################
(PID.TID 0000.0001) > &DARWIN_PARAMS
(PID.TID 0000.0001) >#darwin_chlInitBalanced= T,
(PID.TID 0000.0001) > diaz_ini_fac= 0.1,
(PID.TID 0000.0001) > idebug=271,
(PID.TID 0000.0001) > jdebug=63,
(PID.TID 0000.0001) > darwin_seed= 56,
(PID.TID 0000.0001) > darwin_read_phos= F,
(PID.TID 0000.0001) > tempCoeffArr= 0.8,
(PID.TID 0000.0001) > PARmin= 0.1,
(PID.TID 0000.0001) > alpfe= 1.0,
(PID.TID 0000.0001) > freefemax = .1E-3,
(PID.TID 0000.0001) > depthfesed= 7000.,
(PID.TID 0000.0001) > scav_tau= 0.015,
(PID.TID 0000.0001) > scav_POC_wgt= 1.,
(PID.TID 0000.0001) > scav_POSi_wgt= 0.,
(PID.TID 0000.0001) > scav_PIC_wgt= 0.,
(PID.TID 0000.0001) > kdoc=  3.8580246913580247E-7,  ! 1/30day
(PID.TID 0000.0001) > kdop=  3.8580246913580247E-7,  ! 1/30day
(PID.TID 0000.0001) > kdon=  3.8580246913580247E-7,  ! 1/30day
(PID.TID 0000.0001) > kdofe= 3.8580246913580247E-7,  ! 1/30day
(PID.TID 0000.0001) > kPOC=  3.8580246913580247E-7,  ! 1/30day
(PID.TID 0000.0001) > kPOP=  3.8580246913580247E-7,  ! 1/30day
(PID.TID 0000.0001) > kPON=  3.8580246913580247E-7,  ! 1/30day
(PID.TID 0000.0001) > kPOFe= 3.8580246913580247E-7,  ! 1/30day
(PID.TID 0000.0001) > kPOSi= 7.7160493827160493E-8,  ! 1/150day
(PID.TID 0000.0001) > phygrazmin= 120E-10,
(PID.TID 0000.0001) > hollexp = 2.E0,
(PID.TID 0000.0001) > hillnumGraz = 0.01,
(PID.TID 0000.0001) > /
(PID.TID 0000.0001) >########################
(PID.TID 0000.0001) > &DARWIN_CDOM_PARAMS
(PID.TID 0000.0001) >  fracCDOM = 0.02,
(PID.TID 0000.0001) >  cdomdegrd= 3.8580e-08,
(PID.TID 0000.0001) >  CDOMbleach = 3.0000e-06,
(PID.TID 0000.0001) >  PARCDOM = 70.,
(PID.TID 0000.0001) >  R_NP_CDOM  = 16.,
(PID.TID 0000.0001) >  R_FeP_CDOM = 1.e-3,
(PID.TID 0000.0001) >  R_CP_CDOM  = 120.,
(PID.TID 0000.0001) >  CDOMcoeff = 21.,
(PID.TID 0000.0001) > /
(PID.TID 0000.0001) >########################
(PID.TID 0000.0001) > &DARWIN_RADTRANS_PARAMS
(PID.TID 0000.0001) > darwin_waterabsorbFile='OPTICS_COEFF/optics_water_Aug2014_bandave25.txt',
(PID.TID 0000.0001) > darwin_phytoabsorbFile='OPTICS_COEFF/optics_phyto_10_bandave25_newsize5_diffsyn_zoo.txt',
(PID.TID 0000.0001) > darwin_particleabsorbFile='OPTICS_COEFF/optics_detritus_8_sameas4_bandave25.txt',
(PID.TID 0000.0001) > darwin_Sdom=0.0145000,
(PID.TID 0000.0001) > darwin_aCDOM_fac = 0.30,
(PID.TID 0000.0001) > darwin_part_size_P = 1.e-17,
(PID.TID 0000.0001) > darwin_allomSpectra= T,
(PID.TID 0000.0001) > darwin_absorpSlope= -0.075,
(PID.TID 0000.0001) > darwin_bbbSlope=    -1.458,
(PID.TID 0000.0001) > darwin_scatSwitchSizeLog= 2.860959e-01, 2.923177e-01, 2.983251e-01, 3.140574e-01, 3.261153e-01,
(PID.TID 0000.0001) >                        3.440134e-01, 3.577670e-01, 3.618763e-01, 3.695100e-01, 3.718916e-01,
(PID.TID 0000.0001) >                        3.706202e-01, 3.640583e-01, 3.682107e-01,
(PID.TID 0000.0001) > darwin_scatSlopeSmall= 4.185404e+00, 4.208007e+00, 4.261307e+00, 4.302451e+00, 4.341968e+00,
(PID.TID 0000.0001) >                     4.373109e+00, 4.392320e+00, 4.416705e+00, 4.434653e+00, 4.454953e+00,
(PID.TID 0000.0001) >                     4.479809e+00, 4.507577e+00, 4.544071e+00,
(PID.TID 0000.0001) > darwin_scatSlopeLarge= 1.723153e+00, 1.718186e+00, 1.699666e+00, 1.687533e+00, 1.710736e+00,
(PID.TID 0000.0001) >                     1.732242e+00, 1.763117e+00, 1.811451e+00, 1.834619e+00, 1.863836e+00,
(PID.TID 0000.0001) >                     1.897289e+00, 1.861866e+00, 1.907367e+00,
(PID.TID 0000.0001) > /
(PID.TID 0000.0001) >########################
(PID.TID 0000.0001) > &DARWIN_RANDOM_PARAMS
(PID.TID 0000.0001) > /
(PID.TID 0000.0001) >########################
(PID.TID 0000.0001) > &DARWIN_TRAIT_PARAMS
(PID.TID 0000.0001) > grp_names= 'Pro', 'Syn', 'PicoEuk', 'Cocco', 'Diazo', 'Tricho', 'Diatom', 'Dino', 'Zoo',
(PID.TID 0000.0001) >#
(PID.TID 0000.0001) >#                        P  S pE  C Dz Tr  Dm  Dn  Z
(PID.TID 0000.0001) > grp_nplank(:)=          0, 0, 2, 0, 0, 0,  0,  0, 2,
(PID.TID 0000.0001) > grp_photo(:)=           1, 1, 1, 1, 1, 1,  1,  1, 0,
(PID.TID 0000.0001) > grp_pred(:)=            0, 0, 0, 0, 0, 0,  0,  1, 1
(PID.TID 0000.0001) > grp_prey(:)=            1, 1, 1, 1, 1, 1,  1,  1, 1,
(PID.TID 0000.0001) > grp_hasSi(:)=           0, 0, 0, 0, 0, 0,  1,  0, 0,
(PID.TID 0000.0001) > grp_hasPIC(:)=          0, 0, 0, 1, 0, 0,  0,  0, 0,
(PID.TID 0000.0001) > grp_DIAZO(:)=           0, 0, 0, 0, 1, 1,  0,  0, 0,
(PID.TID 0000.0001) > grp_useNH4(:)=          1, 1, 1, 1, 1, 1,  1,  1, 0,
(PID.TID 0000.0001) > grp_useNO2(:)=          1, 1, 1, 1, 1, 1,  1,  1, 0,
(PID.TID 0000.0001) > grp_useNO3(:)=          1, 1, 1, 1, 1, 1,  1,  1, 0,
(PID.TID 0000.0001) > grp_combNO(:)=          1, 1, 1, 1, 1, 1,  1,  1, 0,
(PID.TID 0000.0001) > grp_tempMort(:)=        0, 0, 0, 0, 0, 0, 0, 0,  0,
(PID.TID 0000.0001) > grp_tempMort2(:)=       0, 0, 0, 0, 0, 0, 0, 0,  0,
(PID.TID 0000.0001) > grp_aptype(:)=          4, 2, 1, 6, 8, 7, 5, 9, 11,
(PID.TID 0000.0001) >#
(PID.TID 0000.0001) > a_Xmin(:)= 8*120E-20,
(PID.TID 0000.0001) >
(PID.TID 0000.0001) ># grp_mqyield(:)= 8*4E-5,
(PID.TID 0000.0001) ># grp_chl2cmax(:)=  6*.2, .3, .2,
(PID.TID 0000.0001) > a_acclimtimescl(:)= 8*5.7870370370370370E-6,
(PID.TID 0000.0001) > logvolbase= -.9000,
(PID.TID 0000.0001) > logvolinc= .513,
(PID.TID 0000.0001) > logvol0ind(:)= 1, 2, 0, 5, 5, 9, 5, 7, 0,
(PID.TID 0000.0001) > grp_logvolind(1:2,3)= 4, 4,
(PID.TID 0000.0001) > grp_logvolind(1:2,9)= 8, 12,
(PID.TID 0000.0001) > a_biosink(:)= 8*6.951416635391563E-7, 0.,  ! .05*dm**.85
(PID.TID 0000.0001) > b_biosink(:)= 8*.2833333333333333, 0.,
(PID.TID 0000.0001) > a_PCmax(1)= 0.90,
(PID.TID 0000.0001) > a_PCmax(2)= 0.90,
(PID.TID 0000.0001) > a_PCmax(3)= 0.90,
(PID.TID 0000.0001) > a_PCmax(4)= 1.4,
(PID.TID 0000.0001) > a_PCmax(5)= 0.95,
(PID.TID 0000.0001) > a_PCmax(6)= 0.95,
(PID.TID 0000.0001) > a_PCmax(7)= 3.9,
(PID.TID 0000.0001) > a_PCmax(8)= 1.7,
(PID.TID 0000.0001) >
(PID.TID 0000.0001) > a_PCmax_denom(:)= 8*86400.,
(PID.TID 0000.0001) > b_PCmax(:)= 0.08, 0.08, 0.08, -0.08, -0.08, -0.08,-0.08, -0.08, 0.,
(PID.TID 0000.0001) >#
(PID.TID 0000.0001) > a_Qpmin = 8*0.005, 0.008,
(PID.TID 0000.0001) > a_Qpmax = 8*0.02,  0.01,
(PID.TID 0000.0001) > a_Qnmin = 8*7.0000000000000007E-002  , 0.1 ,
(PID.TID 0000.0001) > b_Qnmin = 8*-0.17000000000000001     , 0.0 ,
(PID.TID 0000.0001) > a_Qnmax = 8*0.25000000000000000      , 0.2 ,
(PID.TID 0000.0001) > b_Qnmax = 8*-0.13000000000000000     , 0.0 ,
(PID.TID 0000.0001) > a_Qfemin = 3*1.50E-6, 2*6.00E-6, 3*1.50E-6, 1E-6,
(PID.TID 0000.0001) > a_Qfemax = 8*8.0E-5,  2E-5,
(PID.TID 0000.0001) >#
(PID.TID 0000.0001) > darwin_effective_ksat= T,
(PID.TID 0000.0001) > darwin_select_kn_allom=2,
(PID.TID 0000.0001) >#
(PID.TID 0000.0001) > grp_ExportFracPreyPred(1:8,9)= 8*.8,
(PID.TID 0000.0001) > a_R_ChlC(9)= 0.,
(PID.TID 0000.0001) > a_grazemax(9)= 3.4722000000000000E-05,  ! prowe values
(PID.TID 0000.0001) > b_grazemax(9)= -0.16,
(PID.TID 0000.0001) >#
(PID.TID 0000.0001) > a_mort(:)= 8*6e-07, 2e-7  ! 1/7days, 1/50days
(PID.TID 0000.0001) > a_mort2(:)= 8*6.e-7, 8.e-7,  ! 16*.6/120/day
(PID.TID 0000.0001) > a_phytoTempExp2= 8*.0003,
(PID.TID 0000.0001) > a_R_PC(:)= 9*0.008333333333333333,
(PID.TID 0000.0001) > a_R_FeC(:)= 4*0.008333333333333333E-3, 2*0.03333333333333333E-3, 2*0.008333333333333333E-3, 1*0.001333333333333333E-3
(PID.TID 0000.0001) > a_R_NC(:)= 4*0.13333333333333333, 2*0.3333333333333333, 3*0.13333333333333333,
(PID.TID 0000.0001) > a_R_SiC(:)= 6*0., 0.13333333333333333, 2*0.,
(PID.TID 0000.0001) > a_R_PICPOC(:)= 3*0., .8, 5*0.,
(PID.TID 0000.0001) > a_kgrazesat(:)= 8*1.5, 1*1.5,
(PID.TID 0000.0001) > b_kgrazesat(:)= 9*0,
(PID.TID 0000.0001) >#
(PID.TID 0000.0001) > grp_ass_eff(:,:)=81*0.5,
(PID.TID 0000.0001) > /
(PID.TID 0000.0001) 
(PID.TID 0000.0001) Using Millero (1995)/Mehrbach K1 and K2 coefficients
(PID.TID 0000.0001) Using Dickson and Riley (1979) KF coefficient
(PID.TID 0000.0001) Using Uppstrom (1974) BT estimation from salinity
(PID.TID 0000.0001) Using Riley (1965) FT estimation from salinity
(PID.TID 0000.0001)  ===================================
(PID.TID 0000.0001) GCHEM_TR_REGISTER:  Start registering GCHEM tracers
(PID.TID 0000.0001)   DARWIN_TR_REGISTER:  number of DARWIN tracers=   36
(PID.TID 0000.0001)   DARWIN_TR_REGISTER:   starting at pTrc num=    1
(PID.TID 0000.0001)   DARWIN_TR_REGISTER:  Numb. Trac & SepForc Trac:   36   36
(PID.TID 0000.0001) GCHEM_TR_REGISTER:  Numb. Trac & SepForc Trac:   36   36
(PID.TID 0000.0001) 
(PID.TID 0000.0001)  OFFLINE_READPARMS: opening data.off
(PID.TID 0000.0001)  OPEN_COPY_DATA_FILE: opening file data.off
(PID.TID 0000.0001) // =======================================================
(PID.TID 0000.0001) // Parameter file "data.off"
(PID.TID 0000.0001) // =======================================================
(PID.TID 0000.0001) > &OFFLINE_PARM01
(PID.TID 0000.0001) >  UvelFile= 'ECCO_Iter3.73daily/DDuvel/DDuvel',
(PID.TID 0000.0001) >  VvelFile= 'ECCO_Iter3.73daily/DDvvel/DDvvel',
(PID.TID 0000.0001) >  WvelFile= 'ECCO_Iter3.73daily/DDwvel/DDwvel',
(PID.TID 0000.0001) >  GMwxFile= 'ECCO_Iter3.73daily/DGMkwx/DGMkwx',
(PID.TID 0000.0001) >  GMwyFile= 'ECCO_Iter3.73daily/DGMkwy/DGMkwy',
(PID.TID 0000.0001) >  GMwzFile= 'ECCO_Iter3.73daily/DGMkwz/DGMkwz',
(PID.TID 0000.0001) ># ConvFile= 'input_off/Convtave',
(PID.TID 0000.0001) >  SaltFile= 'ECCO_Iter3.73daily/DDsalt/DDsalt',
(PID.TID 0000.0001) >  ThetFile= 'ECCO_Iter3.73daily/DDtheta/DDtheta',
(PID.TID 0000.0001) >  SFluxFile='ECCO_Iter3.73daily/DFOSflux/DFOSflux',
(PID.TID 0000.0001) ># HFluxFile=' ',
(PID.TID 0000.0001) >  KPP_DiffSFile='ECCO_Iter3.73daily/DKPPdiffs/DKPPdiffs',
(PID.TID 0000.0001) >  KPP_ghatKFile='ECCO_Iter3.73daily/DKPPghatK/DKPPghatK',
(PID.TID 0000.0001) >### offGen2DFile='ECCO_Iter3.73daily/SIarea/SIarea',
(PID.TID 0000.0001) > &end
(PID.TID 0000.0001) >
(PID.TID 0000.0001) > &OFFLINE_PARM02
(PID.TID 0000.0001) >  offlineIter0=78912,
(PID.TID 0000.0001) >  deltaToffline=3600.,
(PID.TID 0000.0001) >  offlineForcingPeriod=86400.,
(PID.TID 0000.0001) >  offlineForcingCycle=31104000.,
(PID.TID 0000.0001) >  offlineLoadPrec=32,
(PID.TID 0000.0001) > &end
(PID.TID 0000.0001) >
(PID.TID 0000.0001) 
(PID.TID 0000.0001)  OFFLINE_READPARMS: finished reading data.off
(PID.TID 0000.0001)  DIAGNOSTICS_READPARMS: opening data.diagnostics
(PID.TID 0000.0001)  OPEN_COPY_DATA_FILE: opening file data.diagnostics
(PID.TID 0000.0001) // =======================================================
(PID.TID 0000.0001) // Parameter file "data.diagnostics"
(PID.TID 0000.0001) // =======================================================
(PID.TID 0000.0001) ># Diagnostics
(PID.TID 0000.0001) ># ==================
(PID.TID 0000.0001) ># PAR                 Photosynthetically active radiation
(PID.TID 0000.0001) ># PP                  Primary production
(PID.TID 0000.0001) ># Nfix                Nitrogen fixation
(PID.TID 0000.0001) ># Rstar01             Rstar^PO4 of Phy01
(PID.TID 0000.0001) ># Diver1              # Phy species over absolute threshold'
(PID.TID 0000.0001) ># Diver2              # Phy species over threshold for proportion of biomass'
(PID.TID 0000.0001) ># Diver3              # Phy species constituting bulk of biomass'
(PID.TID 0000.0001) ># Diver4              # Phy species over threshold for ratio to maximum species'
(PID.TID 0000.0001) >#
(PID.TID 0000.0001) > &diagnostics_list
(PID.TID 0000.0001) > dumpatlast= .TRUE.,
(PID.TID 0000.0001) >#
(PID.TID 0000.0001) >  filename( 1) = '3d',
(PID.TID 0000.0001) >  frequency(1) = 2592000.,
(PID.TID 0000.0001) >  frequency(1) = 3600.,
(PID.TID 0000.0001) >  fileflags(1) = 'D       ',
(PID.TID 0000.0001) ># frequency(1) = 31104000.,
(PID.TID 0000.0001) >  fields( 1,1) = 'TRAC01  ',
(PID.TID 0000.0001) >  fields( 2,1) = 'TRAC02  ',
(PID.TID 0000.0001) >  fields( 3,1) = 'TRAC03  ',
(PID.TID 0000.0001) >  fields( 4,1) = 'TRAC04  ',
(PID.TID 0000.0001) >  fields( 5,1) = 'TRAC05  ',
(PID.TID 0000.0001) >  fields( 6,1) = 'TRAC06  ',
(PID.TID 0000.0001) >  fields( 7,1) = 'TRAC07  ',
(PID.TID 0000.0001) >  fields( 8,1) = 'TRAC08  ',
(PID.TID 0000.0001) >  fields( 9,1) = 'TRAC09  ',
(PID.TID 0000.0001) >  fields(10,1) = 'TRAC10  ',
(PID.TID 0000.0001) >  fields(11,1) = 'TRAC11  ',
(PID.TID 0000.0001) >  fields(12,1) = 'TRAC12  ',
(PID.TID 0000.0001) >  fields(13,1) = 'TRAC13  ',
(PID.TID 0000.0001) >  fields(14,1) = 'TRAC14  ',
(PID.TID 0000.0001) >  fields(15,1) = 'TRAC15  ',
(PID.TID 0000.0001) >  fields(16,1) = 'TRAC16  ',
(PID.TID 0000.0001) >  fields(17,1) = 'TRAC17  ',
(PID.TID 0000.0001) >  fields(18,1) = 'TRAC18  ',
(PID.TID 0000.0001) >  fields(19,1) = 'TRAC19  ',
(PID.TID 0000.0001) >  fields(20,1) = 'TRAC20  ',
(PID.TID 0000.0001) >  fields(21,1) = 'TRAC21  ',
(PID.TID 0000.0001) >  fields(22,1) = 'TRAC22  ',
(PID.TID 0000.0001) >  fields(23,1) = 'TRAC23  ',
(PID.TID 0000.0001) >  fields(24,1) = 'TRAC24  ',
(PID.TID 0000.0001) >  fields(25,1) = 'TRAC25  ',
(PID.TID 0000.0001) >  fields(26,1) = 'TRAC26  ',
(PID.TID 0000.0001) >  fields(27,1) = 'TRAC27  ',
(PID.TID 0000.0001) >  fields(28,1) = 'TRAC28  ',
(PID.TID 0000.0001) >  fields(29,1) = 'TRAC29  ',
(PID.TID 0000.0001) >  fields(30,1) = 'TRAC30  ',
(PID.TID 0000.0001) >  fields(31,1) = 'TRAC31  ',
(PID.TID 0000.0001) >  fields(32,1) = 'TRAC32  ',
(PID.TID 0000.0001) >  fields(33,1) = 'TRAC33  ',
(PID.TID 0000.0001) >  fields(34,1) = 'TRAC34  ',
(PID.TID 0000.0001) >  fields(35,1) = 'TRAC35  ',
(PID.TID 0000.0001) >  fields(36,1) = 'TRAC36  ',
(PID.TID 0000.0001) >  fields(37,1) = 'PAR     ',
(PID.TID 0000.0001) >  fields(38,1) = 'PP      ',
(PID.TID 0000.0001) >  fields(39,1) = 'Nfix    ',
(PID.TID 0000.0001) >  fields(40,1) = 'Denit   ',
(PID.TID 0000.0001) >  fields(41,1) = 'pH      ',
(PID.TID 0000.0001) >  fields(42,1) = 'pCO2    ',
(PID.TID 0000.0001) >  fields(43,1) = 'PC0001  ',
(PID.TID 0000.0001) >  fields(44,1) = 'PChl0001',
(PID.TID 0000.0001) >  fields(45,1) = 'VN0001  ',
(PID.TID 0000.0001) >  fields(46,1) = 'MODE0001',
(PID.TID 0000.0001) >  fields(47,1) = 'Fe_C0001',
(PID.TID 0000.0001) >  fields(48,1) = 'exQc0001',
(PID.TID 0000.0001) >  fields(49,1) = 'PCg0001 ',
(PID.TID 0000.0001) >  fields(50,1) = 'CChl0001',
(PID.TID 0000.0001) >  fields(51,1) = 'NChl0001',
(PID.TID 0000.0001) >  fields(52,1) = 'NPho0001',
(PID.TID 0000.0001) >  fields(53,1) = 'NSyn0001',
(PID.TID 0000.0001) >  fields(54,1) = 'NPrn0001',
(PID.TID 0000.0001) >  fields(55,1) = 'NRNA0001',
(PID.TID 0000.0001) >  fields(56,1) = 'NDNA0001',
(PID.TID 0000.0001) >  fields(57,1) = 'NSTO0001',
(PID.TID 0000.0001) >  fields(58,1) = 'NEXC0001',
(PID.TID 0000.0001) >  fields(59,1) = 'PRNA0001',
(PID.TID 0000.0001) >  fields(60,1) = 'PDNA0001',
(PID.TID 0000.0001) >  fields(61,1) = 'PTHY0001',
(PID.TID 0000.0001) >  fields(62,1) = 'PCON0001',
(PID.TID 0000.0001) >  fields(63,1) = 'PSTO0001',
(PID.TID 0000.0001) >  fields(64,1) = 'PEXC0001',
(PID.TID 0000.0001) >  fields(65,1) = 'FPHO0001',
(PID.TID 0000.0001) >  fields(66,1) = 'FSTO0001',
(PID.TID 0000.0001) >  fields(67,1) = 'FEXC0001',
(PID.TID 0000.0001) >  fields(68,1) = 'CChl0002',
(PID.TID 0000.0001) >  fields(69,1) = 'NChl0002',
(PID.TID 0000.0001) >  fields(70,1) = 'NPho0002',
(PID.TID 0000.0001) >  fields(71,1) = 'NSyn0002',
(PID.TID 0000.0001) >  fields(72,1) = 'NPrn0002',
(PID.TID 0000.0001) >  fields(73,1) = 'NRNA0002',
(PID.TID 0000.0001) >  fields(74,1) = 'NDNA0002',
(PID.TID 0000.0001) >  fields(75,1) = 'NSTO0002',
(PID.TID 0000.0001) >  fields(76,1) = 'NEXC0002',
(PID.TID 0000.0001) >  fields(77,1) = 'PRNA0002',
(PID.TID 0000.0001) >  fields(78,1) = 'PDNA0002',
(PID.TID 0000.0001) >  fields(79,1) = 'PTHY0002',
(PID.TID 0000.0001) >  fields(80,1) = 'PCON0002',
(PID.TID 0000.0001) >  fields(81,1) = 'PSTO0002',
(PID.TID 0000.0001) >  fields(82,1) = 'PEXC0002',
(PID.TID 0000.0001) >  fields(83,1) = 'FPHO0002',
(PID.TID 0000.0001) >  fields(84,1) = 'FSTO0002',
(PID.TID 0000.0001) >  fields(85,1) = 'FEXC0002',
(PID.TID 0000.0001) >  fields(86,1) = 'PC0002  ',
(PID.TID 0000.0001) >  fields(87,1) = 'PChl0002',
(PID.TID 0000.0001) >  fields(88,1) = 'VN0002  ',
(PID.TID 0000.0001) >  fields(89,1) = 'MODE0002',
(PID.TID 0000.0001) >  fields(90,1) = 'Fe_C0002',
(PID.TID 0000.0001) >  fields(91,1) = 'exQc0002',
(PID.TID 0000.0001) >  fields(92,1) = 'PCg0002 ',
(PID.TID 0000.0001) >#
(PID.TID 0000.0001) >  filename( 2) = 'GC',
(PID.TID 0000.0001) >  frequency(2) = 2592000.,
(PID.TID 0000.0001) >  frequency(2) = 3600.,
(PID.TID 0000.0001) >  fileflags(2) = 'D       ',
(PID.TID 0000.0001) ># frequency(2) = 31104000.,
(PID.TID 0000.0001) >  fields( 1,2) = 'GC_Tr01 ',
(PID.TID 0000.0001) >  fields( 2,2) = 'GC_Tr02 ',
(PID.TID 0000.0001) >  fields( 3,2) = 'GC_Tr03 ',
(PID.TID 0000.0001) >  fields( 4,2) = 'GC_Tr04 ',
(PID.TID 0000.0001) >  fields( 5,2) = 'GC_Tr05 ',
(PID.TID 0000.0001) >  fields( 6,2) = 'GC_Tr06 ',
(PID.TID 0000.0001) >  fields( 7,2) = 'GC_Tr07 ',
(PID.TID 0000.0001) >  fields( 8,2) = 'GC_Tr08 ',
(PID.TID 0000.0001) >  fields( 9,2) = 'GC_Tr09 ',
(PID.TID 0000.0001) >  fields(10,2) = 'GC_Tr10 ',
(PID.TID 0000.0001) >  fields(11,2) = 'GC_Tr11 ',
(PID.TID 0000.0001) >  fields(12,2) = 'GC_Tr12 ',
(PID.TID 0000.0001) >  fields(13,2) = 'GC_Tr13 ',
(PID.TID 0000.0001) >  fields(14,2) = 'GC_Tr14 ',
(PID.TID 0000.0001) >  fields(15,2) = 'GC_Tr15 ',
(PID.TID 0000.0001) >  fields(16,2) = 'GC_Tr16 ',
(PID.TID 0000.0001) >  fields(17,2) = 'GC_Tr17 ',
(PID.TID 0000.0001) >  fields(18,2) = 'GC_Tr18 ',
(PID.TID 0000.0001) >  fields(19,2) = 'GC_Tr19 ',
(PID.TID 0000.0001) >  fields(20,2) = 'GC_Tr20 ',
(PID.TID 0000.0001) >  fields(21,2) = 'GC_Tr21 ',
(PID.TID 0000.0001) >  fields(22,2) = 'GC_Tr22 ',
(PID.TID 0000.0001) >  fields(23,2) = 'GC_Tr23 ',
(PID.TID 0000.0001) >  fields(24,2) = 'GC_Tr24 ',
(PID.TID 0000.0001) >  fields(25,2) = 'GC_Tr25 ',
(PID.TID 0000.0001) >  fields(26,2) = 'GC_Tr26 ',
(PID.TID 0000.0001) >  fields(27,2) = 'GC_Tr27 ',
(PID.TID 0000.0001) >  fields(28,2) = 'GC_Tr28 ',
(PID.TID 0000.0001) >  fields(29,2) = 'GC_Tr29 ',
(PID.TID 0000.0001) >  fields(30,2) = 'GC_Tr30 ',
(PID.TID 0000.0001) >  fields(31,2) = 'GC_Tr31 ',
(PID.TID 0000.0001) >  fields(32,2) = 'GC_Tr32 ',
(PID.TID 0000.0001) >  fields(33,2) = 'GC_Tr33 ',
(PID.TID 0000.0001) >  fields(34,2) = 'GC_Tr34 ',
(PID.TID 0000.0001) >  fields(35,2) = 'GC_Tr35 ',
(PID.TID 0000.0001) >  fields(36,2) = 'GC_Tr36 ',
(PID.TID 0000.0001) >#
(PID.TID 0000.0001) >#
(PID.TID 0000.0001) >  filename( 6) = 'iops',
(PID.TID 0000.0001) >  frequency(6) = 2592000.,
(PID.TID 0000.0001) ># frequency(6) = 31104000.,
(PID.TID 0000.0001) >  fields(  1,6) = 'a001    ',
(PID.TID 0000.0001) >  fields(  2,6) = 'a002    ',
(PID.TID 0000.0001) >  fields(  3,6) = 'a003    ',
(PID.TID 0000.0001) >  fields(  4,6) = 'a004    ',
(PID.TID 0000.0001) >  fields(  5,6) = 'a005    ',
(PID.TID 0000.0001) >  fields(  6,6) = 'a006    ',
(PID.TID 0000.0001) >  fields(  7,6) = 'a007    ',
(PID.TID 0000.0001) >  fields(  8,6) = 'a008    ',
(PID.TID 0000.0001) >  fields(  9,6) = 'a009    ',
(PID.TID 0000.0001) >  fields( 10,6) = 'a010    ',
(PID.TID 0000.0001) >  fields( 11,6) = 'a011    ',
(PID.TID 0000.0001) >  fields( 12,6) = 'a012    ',
(PID.TID 0000.0001) >  fields( 13,6) = 'a013    ',
(PID.TID 0000.0001) >  fields( 14,6) = 'bt001   ',
(PID.TID 0000.0001) >  fields( 15,6) = 'bt002   ',
(PID.TID 0000.0001) >  fields( 16,6) = 'bt003   ',
(PID.TID 0000.0001) >  fields( 17,6) = 'bt004   ',
(PID.TID 0000.0001) >  fields( 18,6) = 'bt005   ',
(PID.TID 0000.0001) >  fields( 19,6) = 'bt006   ',
(PID.TID 0000.0001) >  fields( 20,6) = 'bt007   ',
(PID.TID 0000.0001) >  fields( 21,6) = 'bt008   ',
(PID.TID 0000.0001) >  fields( 22,6) = 'bt009   ',
(PID.TID 0000.0001) >  fields( 23,6) = 'bt010   ',
(PID.TID 0000.0001) >  fields( 24,6) = 'bt011   ',
(PID.TID 0000.0001) >  fields( 25,6) = 'bt012   ',
(PID.TID 0000.0001) >  fields( 26,6) = 'bt013   ',
(PID.TID 0000.0001) >  fields( 27,6) = 'bb001   ',
(PID.TID 0000.0001) >  fields( 28,6) = 'bb002   ',
(PID.TID 0000.0001) >  fields( 29,6) = 'bb003   ',
(PID.TID 0000.0001) >  fields( 30,6) = 'bb004   ',
(PID.TID 0000.0001) >  fields( 31,6) = 'bb005   ',
(PID.TID 0000.0001) >  fields( 62,6) = 'bb006   ',
(PID.TID 0000.0001) >  fields( 33,6) = 'bb007   ',
(PID.TID 0000.0001) >  fields( 34,6) = 'bb008   ',
(PID.TID 0000.0001) >  fields( 35,6) = 'bb009   ',
(PID.TID 0000.0001) >  fields( 36,6) = 'bb010   ',
(PID.TID 0000.0001) >  fields( 37,6) = 'bb011   ',
(PID.TID 0000.0001) >  fields( 38,6) = 'bb012   ',
(PID.TID 0000.0001) >  fields( 39,6) = 'bb013   ',
(PID.TID 0000.0001) >  fields( 40,6) = 'aCDOM001',
(PID.TID 0000.0001) >  fields( 41,6) = 'aCDOM002',
(PID.TID 0000.0001) >  fields( 42,6) = 'aCDOM003',
(PID.TID 0000.0001) >  fields( 43,6) = 'aCDOM004',
(PID.TID 0000.0001) >  fields( 44,6) = 'aCDOM005',
(PID.TID 0000.0001) >  fields( 45,6) = 'aCDOM006',
(PID.TID 0000.0001) >  fields( 46,6) = 'aCDOM007',
(PID.TID 0000.0001) >  fields( 47,6) = 'aCDOM008',
(PID.TID 0000.0001) >  fields( 48,6) = 'aCDOM009',
(PID.TID 0000.0001) >  fields( 49,6) = 'aCDOM010',
(PID.TID 0000.0001) >  fields( 50,6) = 'aCDOM011',
(PID.TID 0000.0001) >  fields( 51,6) = 'aCDOM012',
(PID.TID 0000.0001) >  fields( 52,6) = 'aCDOM013',
(PID.TID 0000.0001) >#
(PID.TID 0000.0001) >  filename( 7) = 'par',
(PID.TID 0000.0001) >  frequency(7) = 2592000.,
(PID.TID 0000.0001) ># frequency(7) = 31104000.,
(PID.TID 0000.0001) ># levels(1:10,7) = 1, 2, 3, 4, 5, 6, 7, 8, 9, 10,
(PID.TID 0000.0001) >  fields(  1,7) = 'Ed001   ',
(PID.TID 0000.0001) >  fields(  2,7) = 'Ed002   ',
(PID.TID 0000.0001) >  fields(  3,7) = 'Ed003   ',
(PID.TID 0000.0001) >  fields(  4,7) = 'Ed004   ',
(PID.TID 0000.0001) >  fields(  5,7) = 'Ed005   ',
(PID.TID 0000.0001) >  fields(  6,7) = 'Ed006   ',
(PID.TID 0000.0001) >  fields(  7,7) = 'Ed007   ',
(PID.TID 0000.0001) >  fields(  8,7) = 'Ed008   ',
(PID.TID 0000.0001) >  fields(  9,7) = 'Ed009   ',
(PID.TID 0000.0001) >  fields( 10,7) = 'Ed010   ',
(PID.TID 0000.0001) >  fields( 11,7) = 'Ed011   ',
(PID.TID 0000.0001) >  fields( 12,7) = 'Ed012   ',
(PID.TID 0000.0001) >  fields( 13,7) = 'Ed013   ',
(PID.TID 0000.0001) >  fields( 14,7) = 'Es001   ',
(PID.TID 0000.0001) >  fields( 15,7) = 'Es002   ',
(PID.TID 0000.0001) >  fields( 16,7) = 'Es003   ',
(PID.TID 0000.0001) >  fields( 17,7) = 'Es004   ',
(PID.TID 0000.0001) >  fields( 18,7) = 'Es005   ',
(PID.TID 0000.0001) >  fields( 19,7) = 'Es006   ',
(PID.TID 0000.0001) >  fields( 20,7) = 'Es007   ',
(PID.TID 0000.0001) >  fields( 21,7) = 'Es008   ',
(PID.TID 0000.0001) >  fields( 22,7) = 'Es009   ',
(PID.TID 0000.0001) >  fields( 23,7) = 'Es010   ',
(PID.TID 0000.0001) >  fields( 24,7) = 'Es011   ',
(PID.TID 0000.0001) >  fields( 25,7) = 'Es012   ',
(PID.TID 0000.0001) >  fields( 26,7) = 'Es013   ',
(PID.TID 0000.0001) >  fields( 27,7) = 'Eu001   ',
(PID.TID 0000.0001) >  fields( 28,7) = 'Eu002   ',
(PID.TID 0000.0001) >  fields( 29,7) = 'Eu003   ',
(PID.TID 0000.0001) >  fields( 30,7) = 'Eu004   ',
(PID.TID 0000.0001) >  fields( 31,7) = 'Eu005   ',
(PID.TID 0000.0001) >  fields( 32,7) = 'Eu006   ',
(PID.TID 0000.0001) >  fields( 33,7) = 'Eu007   ',
(PID.TID 0000.0001) >  fields( 34,7) = 'Eu008   ',
(PID.TID 0000.0001) >  fields( 35,7) = 'Eu009   ',
(PID.TID 0000.0001) >  fields( 36,7) = 'Eu010   ',
(PID.TID 0000.0001) >  fields( 37,7) = 'Eu011   ',
(PID.TID 0000.0001) >  fields( 38,7) = 'Eu012   ',
(PID.TID 0000.0001) >  fields( 39,7) = 'Eu013   ',
(PID.TID 0000.0001) >  fields( 40,7) = 'PAR001  ',
(PID.TID 0000.0001) >  fields( 41,7) = 'PAR002  ',
(PID.TID 0000.0001) >  fields( 42,7) = 'PAR003  ',
(PID.TID 0000.0001) >  fields( 43,7) = 'PAR004  ',
(PID.TID 0000.0001) >  fields( 44,7) = 'PAR005  ',
(PID.TID 0000.0001) >  fields( 45,7) = 'PAR006  ',
(PID.TID 0000.0001) >  fields( 46,7) = 'PAR007  ',
(PID.TID 0000.0001) >  fields( 47,7) = 'PAR008  ',
(PID.TID 0000.0001) >  fields( 48,7) = 'PAR009  ',
(PID.TID 0000.0001) >  fields( 49,7) = 'PAR010  ',
(PID.TID 0000.0001) >  fields( 50,7) = 'PAR011  ',
(PID.TID 0000.0001) >  fields( 51,7) = 'PAR012  ',
(PID.TID 0000.0001) >  fields( 52,7) = 'PAR013  ',
(PID.TID 0000.0001) >#
(PID.TID 0000.0001) >  filename( 8) = '2d',
(PID.TID 0000.0001) >  frequency(8) = 2592000.,
(PID.TID 0000.0001) ># frequency(8) = 31104000.,
(PID.TID 0000.0001) >  fields( 1,8) = 'fluxCO2 ',
(PID.TID 0000.0001) >  fields( 2,8) = 'gDICsurf',
(PID.TID 0000.0001) >  fields( 3,8) = 'gALKsurf',
(PID.TID 0000.0001) >  fields( 4,8) = 'gO2surf ',
(PID.TID 0000.0001) >#
(PID.TID 0000.0001) > &
(PID.TID 0000.0001) >
(PID.TID 0000.0001) ># Parameter for Diagnostics of per level statistics:
(PID.TID 0000.0001) >#-----------------
(PID.TID 0000.0001) ># for each output-stream:
(PID.TID 0000.0001) >#  stat_fname(n) : prefix of the output file name (only 8.c long) for
(PID.TID 0000.0001) >#outp.stream n
(PID.TID 0000.0001) >#  stat_freq(n):< 0 : write snap-shot output every |stat_freq| seconds
(PID.TID 0000.0001) >#               > 0 : write time-average output every stat_freq seconds
(PID.TID 0000.0001) >#  stat_phase(n)    : write at time = stat_phase + multiple of |stat_freq|
(PID.TID 0000.0001) >#  stat_region(:,n) : list of "regions" (default: 1 region only=global)
(PID.TID 0000.0001) >#  stat_fields(:,n) : list of diagnostics fields (8.c) (see
(PID.TID 0000.0001) >#"available_diagnostics.log"
(PID.TID 0000.0001) >#                 file for the list of all available diag. in this particular
(PID.TID 0000.0001) >#config)
(PID.TID 0000.0001) >#-----------------
(PID.TID 0000.0001) > &DIAG_STATIS_PARMS
(PID.TID 0000.0001) > diagst_mnc=.FALSE.,
(PID.TID 0000.0001) >     stat_freq(1:3)= 3*10800.,
(PID.TID 0000.0001) >    stat_phase(1:3)= 3*0.,
(PID.TID 0000.0001) > stat_fields(1,1)= 'PP      '
(PID.TID 0000.0001) > stat_fields(1,2)= 'Nfix    '
(PID.TID 0000.0001) > stat_fields(1,3)= 'Denit   '
(PID.TID 0000.0001) >    stat_fname(1)= 'statsPP',
(PID.TID 0000.0001) >    stat_fname(2)= 'statsNfix',
(PID.TID 0000.0001) >    stat_fname(3)= 'statsDenit',
(PID.TID 0000.0001) > &
(PID.TID 0000.0001) 
(PID.TID 0000.0001) S/R DIAGNOSTICS_READPARMS, read namelist "diagnostics_list": start
(PID.TID 0000.0001) S/R DIAGNOSTICS_READPARMS, read namelist "diagnostics_list": OK
(PID.TID 0000.0001) S/R DIAGNOSTICS_READPARMS, read namelist "DIAG_STATIS_PARMS": start
(PID.TID 0000.0001) S/R DIAGNOSTICS_READPARMS, read namelist "DIAG_STATIS_PARMS": OK
(PID.TID 0000.0001)  DIAGNOSTICS_READPARMS: global parameter summary:
(PID.TID 0000.0001)  dumpAtLast = /* always write time-ave diags at the end */
(PID.TID 0000.0001)                   T
(PID.TID 0000.0001)     ;
(PID.TID 0000.0001)  diag_mnc =   /* write NetCDF output files */
(PID.TID 0000.0001)                   T
(PID.TID 0000.0001)     ;
(PID.TID 0000.0001)  useMissingValue = /* put MissingValue where mask = 0 */
(PID.TID 0000.0001)                   F
(PID.TID 0000.0001)     ;
(PID.TID 0000.0001)  diagCG_maxIters = /* max number of iters in diag_cg2d */
(PID.TID 0000.0001)                     300
(PID.TID 0000.0001)     ;
(PID.TID 0000.0001)  diagCG_resTarget = /* residual target for diag_cg2d */
(PID.TID 0000.0001)                 1.000000000000000E-07
(PID.TID 0000.0001)     ;
(PID.TID 0000.0001)  diagCG_pcOffDFac = /* preconditioner off-diagonal factor */
(PID.TID 0000.0001)                 9.611687812379854E-01
(PID.TID 0000.0001)     ;
(PID.TID 0000.0001) -----------------------------------------------------
(PID.TID 0000.0001)  DIAGNOSTICS_READPARMS: active diagnostics summary:
(PID.TID 0000.0001) -----------------------------------------------------
(PID.TID 0000.0001) Creating Output Stream: 3d
(PID.TID 0000.0001) Output Frequency:       3600.000000 ; Phase:           0.000000
(PID.TID 0000.0001)  Averaging Freq.:       3600.000000 , Phase:           0.000000 , Cycle:   1
(PID.TID 0000.0001)  missing value: -9.990000000000E+02 ; F-Flags="D       "
(PID.TID 0000.0001)  Levels:    will be set later
(PID.TID 0000.0001)  Fields:    TRAC01   TRAC02   TRAC03   TRAC04   TRAC05   TRAC06   TRAC07   TRAC08   TRAC09   TRAC10
(PID.TID 0000.0001)  Fields:    TRAC11   TRAC12   TRAC13   TRAC14   TRAC15   TRAC16   TRAC17   TRAC18   TRAC19   TRAC20
(PID.TID 0000.0001)  Fields:    TRAC21   TRAC22   TRAC23   TRAC24   TRAC25   TRAC26   TRAC27   TRAC28   TRAC29   TRAC30
(PID.TID 0000.0001)  Fields:    TRAC31   TRAC32   TRAC33   TRAC34   TRAC35   TRAC36   PAR      PP       Nfix     Denit
(PID.TID 0000.0001)  Fields:    pH       pCO2     PC0001   PChl0001 VN0001   MODE0001 Fe_C0001 exQc0001 PCg0001  CChl0001
(PID.TID 0000.0001)  Fields:    NChl0001 NPho0001 NSyn0001 NPrn0001 NRNA0001 NDNA0001 NSTO0001 NEXC0001 PRNA0001 PDNA0001
(PID.TID 0000.0001)  Fields:    PTHY0001 PCON0001 PSTO0001 PEXC0001 FPHO0001 FSTO0001 FEXC0001 CChl0002 NChl0002 NPho0002
(PID.TID 0000.0001)  Fields:    NSyn0002 NPrn0002 NRNA0002 NDNA0002 NSTO0002 NEXC0002 PRNA0002 PDNA0002 PTHY0002 PCON0002
(PID.TID 0000.0001)  Fields:    PSTO0002 PEXC0002 FPHO0002 FSTO0002 FEXC0002 PC0002   PChl0002 VN0002   MODE0002 Fe_C0002
(PID.TID 0000.0001)  Fields:    exQc0002 PCg0002
(PID.TID 0000.0001) Creating Output Stream: GC
(PID.TID 0000.0001) Output Frequency:       3600.000000 ; Phase:           0.000000
(PID.TID 0000.0001)  Averaging Freq.:       3600.000000 , Phase:           0.000000 , Cycle:   1
(PID.TID 0000.0001)  missing value: -9.990000000000E+02 ; F-Flags="D       "
(PID.TID 0000.0001)  Levels:    will be set later
(PID.TID 0000.0001)  Fields:    GC_Tr01  GC_Tr02  GC_Tr03  GC_Tr04  GC_Tr05  GC_Tr06  GC_Tr07  GC_Tr08  GC_Tr09  GC_Tr10
(PID.TID 0000.0001)  Fields:    GC_Tr11  GC_Tr12  GC_Tr13  GC_Tr14  GC_Tr15  GC_Tr16  GC_Tr17  GC_Tr18  GC_Tr19  GC_Tr20
(PID.TID 0000.0001)  Fields:    GC_Tr21  GC_Tr22  GC_Tr23  GC_Tr24  GC_Tr25  GC_Tr26  GC_Tr27  GC_Tr28  GC_Tr29  GC_Tr30
(PID.TID 0000.0001)  Fields:    GC_Tr31  GC_Tr32  GC_Tr33  GC_Tr34  GC_Tr35  GC_Tr36
(PID.TID 0000.0001) Creating Output Stream: iops
(PID.TID 0000.0001) Output Frequency:    2592000.000000 ; Phase:           0.000000
(PID.TID 0000.0001)  Averaging Freq.:    2592000.000000 , Phase:           0.000000 , Cycle:   1
(PID.TID 0000.0001)  missing value: -9.990000000000E+02
(PID.TID 0000.0001)  Levels:    will be set later
(PID.TID 0000.0001)  Fields:    a001     a002     a003     a004     a005     a006     a007     a008     a009     a010
(PID.TID 0000.0001)  Fields:    a011     a012     a013     bt001    bt002    bt003    bt004    bt005    bt006    bt007
(PID.TID 0000.0001)  Fields:    bt008    bt009    bt010    bt011    bt012    bt013    bb001    bb002    bb003    bb004
(PID.TID 0000.0001)  Fields:    bb005    bb007    bb008    bb009    bb010    bb011    bb012    bb013    aCDOM001 aCDOM002
(PID.TID 0000.0001)  Fields:    aCDOM003 aCDOM004 aCDOM005 aCDOM006 aCDOM007 aCDOM008 aCDOM009 aCDOM010 aCDOM011 aCDOM012
(PID.TID 0000.0001)  Fields:    aCDOM013 bb006
(PID.TID 0000.0001) Creating Output Stream: par
(PID.TID 0000.0001) Output Frequency:    2592000.000000 ; Phase:           0.000000
(PID.TID 0000.0001)  Averaging Freq.:    2592000.000000 , Phase:           0.000000 , Cycle:   1
(PID.TID 0000.0001)  missing value: -9.990000000000E+02
(PID.TID 0000.0001)  Levels:    will be set later
(PID.TID 0000.0001)  Fields:    Ed001    Ed002    Ed003    Ed004    Ed005    Ed006    Ed007    Ed008    Ed009    Ed010
(PID.TID 0000.0001)  Fields:    Ed011    Ed012    Ed013    Es001    Es002    Es003    Es004    Es005    Es006    Es007
(PID.TID 0000.0001)  Fields:    Es008    Es009    Es010    Es011    Es012    Es013    Eu001    Eu002    Eu003    Eu004
(PID.TID 0000.0001)  Fields:    Eu005    Eu006    Eu007    Eu008    Eu009    Eu010    Eu011    Eu012    Eu013    PAR001
(PID.TID 0000.0001)  Fields:    PAR002   PAR003   PAR004   PAR005   PAR006   PAR007   PAR008   PAR009   PAR010   PAR011
(PID.TID 0000.0001)  Fields:    PAR012   PAR013
(PID.TID 0000.0001) Creating Output Stream: 2d
(PID.TID 0000.0001) Output Frequency:    2592000.000000 ; Phase:           0.000000
(PID.TID 0000.0001)  Averaging Freq.:    2592000.000000 , Phase:           0.000000 , Cycle:   1
(PID.TID 0000.0001)  missing value: -9.990000000000E+02
(PID.TID 0000.0001)  Levels:    will be set later
(PID.TID 0000.0001)  Fields:    fluxCO2  gDICsurf gALKsurf gO2surf
(PID.TID 0000.0001) -----------------------------------------------------
(PID.TID 0000.0001)  DIAGNOSTICS_READPARMS: statistics diags. summary:
(PID.TID 0000.0001) Creating Stats. Output Stream: statsPP
(PID.TID 0000.0001) Output Frequency:      10800.000000 ; Phase:           0.000000
(PID.TID 0000.0001)  Regions:   0
(PID.TID 0000.0001)  Fields:    PP
(PID.TID 0000.0001) Creating Stats. Output Stream: statsNfix
(PID.TID 0000.0001) Output Frequency:      10800.000000 ; Phase:           0.000000
(PID.TID 0000.0001)  Regions:   0
(PID.TID 0000.0001)  Fields:    Nfix
(PID.TID 0000.0001) Creating Stats. Output Stream: statsDenit
(PID.TID 0000.0001) Output Frequency:      10800.000000 ; Phase:           0.000000
(PID.TID 0000.0001)  Regions:   0
(PID.TID 0000.0001)  Fields:    Denit
(PID.TID 0000.0001) -----------------------------------------------------
(PID.TID 0000.0001) 
(PID.TID 0000.0001)  OFFLINE_RESET_PARMS: => turn off Temp,Salt & Mom_Stepping flags
(PID.TID 0000.0001) SET_PARMS: done
(PID.TID 0000.0001) Enter INI_VERTICAL_GRID: setInterFDr=    T ; setCenterDr=    F
(PID.TID 0000.0001) %MON XC_max                       =   3.5950000000000E+02
(PID.TID 0000.0001) %MON XC_min                       =   5.0000000000000E-01
(PID.TID 0000.0001) %MON XC_mean                      =   1.8000000000000E+02
(PID.TID 0000.0001) %MON XC_sd                        =   1.0392264751567E+02
(PID.TID 0000.0001) %MON XG_max                       =   3.5900000000000E+02
(PID.TID 0000.0001) %MON XG_min                       =   0.0000000000000E+00
(PID.TID 0000.0001) %MON XG_mean                      =   1.7950000000000E+02
(PID.TID 0000.0001) %MON XG_sd                        =   1.0392264751567E+02
(PID.TID 0000.0001) %MON DXC_max                      =   1.1117324005452E+05
(PID.TID 0000.0001) %MON DXC_min                      =   2.0260485279198E+04
(PID.TID 0000.0001) %MON DXC_mean                     =   7.8416312620425E+04
(PID.TID 0000.0001) %MON DXC_sd                       =   2.8072575688353E+04
(PID.TID 0000.0001) %MON DXF_max                      =   1.1117324005452E+05
(PID.TID 0000.0001) %MON DXF_min                      =   2.0260485279198E+04
(PID.TID 0000.0001) %MON DXF_mean                     =   7.8416312620425E+04
(PID.TID 0000.0001) %MON DXF_sd                       =   2.8072575688353E+04
(PID.TID 0000.0001) %MON DXG_max                      =   1.1117747335204E+05
(PID.TID 0000.0001) %MON DXG_min                      =   1.9305765645195E+04
(PID.TID 0000.0001) %MON DXG_mean                     =   7.8413326767521E+04
(PID.TID 0000.0001) %MON DXG_sd                       =   2.8078861897602E+04
(PID.TID 0000.0001) %MON DXV_max                      =   1.1117747335204E+05
(PID.TID 0000.0001) %MON DXV_min                      =   1.9305765645195E+04
(PID.TID 0000.0001) %MON DXV_mean                     =   7.8413326767521E+04
(PID.TID 0000.0001) %MON DXV_sd                       =   2.8078861897602E+04
(PID.TID 0000.0001) %MON YC_max                       =   7.9500000000000E+01
(PID.TID 0000.0001) %MON YC_min                       =  -7.9500000000000E+01
(PID.TID 0000.0001) %MON YC_mean                      =   0.0000000000000E+00
(PID.TID 0000.0001) %MON YC_sd                        =   4.6187119416565E+01
(PID.TID 0000.0001) %MON YG_max                       =   7.9000000000000E+01
(PID.TID 0000.0001) %MON YG_min                       =  -8.0000000000000E+01
(PID.TID 0000.0001) %MON YG_mean                      =  -5.0000000000000E-01
(PID.TID 0000.0001) %MON YG_sd                        =   4.6187119416565E+01
(PID.TID 0000.0001) %MON DYC_max                      =   1.1117747335204E+05
(PID.TID 0000.0001) %MON DYC_min                      =   1.1117747335204E+05
(PID.TID 0000.0001) %MON DYC_mean                     =   1.1117747335204E+05
(PID.TID 0000.0001) %MON DYC_sd                       =   5.8207660913467E-10
(PID.TID 0000.0001) %MON DYF_max                      =   1.1117747335204E+05
(PID.TID 0000.0001) %MON DYF_min                      =   1.1117747335204E+05
(PID.TID 0000.0001) %MON DYF_mean                     =   1.1117747335204E+05
(PID.TID 0000.0001) %MON DYF_sd                       =   5.8207660913467E-10
(PID.TID 0000.0001) %MON DYG_max                      =   1.1117747335204E+05
(PID.TID 0000.0001) %MON DYG_min                      =   1.1117747335204E+05
(PID.TID 0000.0001) %MON DYG_mean                     =   1.1117747335204E+05
(PID.TID 0000.0001) %MON DYG_sd                       =   5.8207660913467E-10
(PID.TID 0000.0001) %MON DYU_max                      =   1.1117747335204E+05
(PID.TID 0000.0001) %MON DYU_min                      =   1.1117747335204E+05
(PID.TID 0000.0001) %MON DYU_mean                     =   1.1117747335204E+05
(PID.TID 0000.0001) %MON DYU_sd                       =   5.8207660913467E-10
(PID.TID 0000.0001) %MON RA_max                       =   1.2359803056756E+10
(PID.TID 0000.0001) %MON RA_min                       =   2.2524809726008E+09
(PID.TID 0000.0001) %MON RA_mean                      =   8.7180168532476E+09
(PID.TID 0000.0001) %MON RA_sd                        =   3.1209984222261E+09
(PID.TID 0000.0001) %MON RAW_max                      =   1.2359803056756E+10
(PID.TID 0000.0001) %MON RAW_min                      =   2.2524809726008E+09
(PID.TID 0000.0001) %MON RAW_mean                     =   8.7180168532476E+09
(PID.TID 0000.0001) %MON RAW_sd                       =   3.1209984222261E+09
(PID.TID 0000.0001) %MON RAS_max                      =   1.2360273698104E+10
(PID.TID 0000.0001) %MON RAS_min                      =   2.1463390031403E+09
(PID.TID 0000.0001) %MON RAS_mean                     =   8.7176848978794E+09
(PID.TID 0000.0001) %MON RAS_sd                       =   3.1216972982169E+09
(PID.TID 0000.0001) %MON RAZ_max                      =   1.2360273698104E+10
(PID.TID 0000.0001) %MON RAZ_min                      =   2.1463390031403E+09
(PID.TID 0000.0001) %MON RAZ_mean                     =   8.7176848978794E+09
(PID.TID 0000.0001) %MON RAZ_sd                       =   3.1216972982169E+09
(PID.TID 0000.0001) %MON AngleCS_max                  =   1.0000000000000E+00
(PID.TID 0000.0001) %MON AngleCS_min                  =   1.0000000000000E+00
(PID.TID 0000.0001) %MON AngleCS_mean                 =   1.0000000000000E+00
(PID.TID 0000.0001) %MON AngleCS_sd                   =   0.0000000000000E+00
(PID.TID 0000.0001) %MON AngleSN_max                  =   0.0000000000000E+00
(PID.TID 0000.0001) %MON AngleSN_min                  =   0.0000000000000E+00
(PID.TID 0000.0001) %MON AngleSN_mean                 =   0.0000000000000E+00
(PID.TID 0000.0001) %MON AngleSN_sd                   =   0.0000000000000E+00
(PID.TID 0000.0001)  MDS_READ_FIELD: opening global file: input_ecco/bathy_fl.bin
(PID.TID 0000.0001) // =======================================================
(PID.TID 0000.0001) // Field Model R_low (ini_masks_etc)
(PID.TID 0000.0001) // CMIN =         -5.700000000000000E+03
(PID.TID 0000.0001) // CMAX =         -5.500000000000000E+01
(PID.TID 0000.0001) // CINT =          2.090740740740741E+02
(PID.TID 0000.0001) // SYMBOLS (CMIN->CMAX): -abcdefghijklmnopqrstuvwxyz+
(PID.TID 0000.0001) //                  0.0: .
(PID.TID 0000.0001) // RANGE I (Lo:Hi:Step):(    -3:    24:     1)
(PID.TID 0000.0001) // RANGE J (Lo:Hi:Step):(    24:    -3:    -1)
(PID.TID 0000.0001) // RANGE K (Lo:Hi:Step):(   1:   1:   1)
(PID.TID 0000.0001) // =======================================================
(PID.TID 0000.0001) K =   1
(PID.TID 0000.0001) //                I=6       I=16
(PID.TID 0000.0001) // |--J--|321012345|789012345|78901234
(PID.TID 0000.0001) //     24 ljjjjggjggeeebbbbbbbbbeegejj
(PID.TID 0000.0001) //     23 jjjgggggeeeebbb----bbbbeeebe
(PID.TID 0000.0001) //     22 eeeggeebbbbbebbb--bbbbbbbbbb
(PID.TID 0000.0001) //     21 bbbbbbbbbbbbbbbbbbbbbbbbbbbb
(PID.TID 0000.0001) //     20 bbbbbbbbbbbbbbbbbbbbbbbbbbbb
(PID.TID 0000.0001) //     19 bbbbbbbbbbbbbbbebbbbbbbbbbbb
(PID.TID 0000.0001) //     18 bbbbbbbbbbbbbbbbbbbbbbbbbbbb
(PID.TID 0000.0001) //     17 bbbbbbeeeeebbbbbbbbbbbbbbbbb
(PID.TID 0000.0001) //     16 bbbbgnqnnjeeebbeeeeeebbbbbbb
(PID.TID 0000.0001) //     15 eebglnnljggggggjllljgeeeeeee
(PID.TID 0000.0001) //     14 eeeejgjjgggggjjllljggeeeeeee
(PID.TID 0000.0001) //     13 ggeeeegjggggjlnqlljggggggggg
(PID.TID 0000.0001) //     12 jggggggjllllllnsqnllljjjjjjj
(PID.TID 0000.0001) //     11 nlnqsqqqqqsssquzzyxyxwssssnl
(PID.TID 0000.0001) //     10 z+zzz+..z++...++..........yy
(PID.TID 0000.0001) //      9 ............................
(PID.TID 0000.0001) //      8 ............................
(PID.TID 0000.0001) //      7 ............................
(PID.TID 0000.0001) //      6 ............................
(PID.TID 0000.0001) //      5 ............................
(PID.TID 0000.0001) //      4 ............................
(PID.TID 0000.0001) //      3 ............................
(PID.TID 0000.0001) //      2 ............................
(PID.TID 0000.0001) //      1 ............................
(PID.TID 0000.0001) //      0 sqnnnlllnquwyz+.............
(PID.TID 0000.0001) //     -1 snnnnnnnqqqquzz.............
(PID.TID 0000.0001) //     -2 qnllllllnnqqnsxzzz..........
(PID.TID 0000.0001) //     -3 ljlllllllnqnnqqsuxz+........
(PID.TID 0000.0001) // =======================================================
(PID.TID 0000.0001) // END OF FIELD                                          =
(PID.TID 0000.0001) // =======================================================
(PID.TID 0000.0001) 
(PID.TID 0000.0001) // =======================================================
(PID.TID 0000.0001) // Field Model Ro_surf (ini_masks_etc)
(PID.TID 0000.0001) // CMIN =          1.000000000000000E+32
(PID.TID 0000.0001) // CMAX =         -1.000000000000000E+32
(PID.TID 0000.0001) // CINT =          0.000000000000000E+00
(PID.TID 0000.0001) // SYMBOLS (CMIN->CMAX): -abcdefghijklmnopqrstuvwxyz+
(PID.TID 0000.0001) //                  0.0: .
(PID.TID 0000.0001) // RANGE I (Lo:Hi:Step):(    -3:    24:     1)
(PID.TID 0000.0001) // RANGE J (Lo:Hi:Step):(    24:    -3:    -1)
(PID.TID 0000.0001) // RANGE K (Lo:Hi:Step):(   1:   1:   1)
(PID.TID 0000.0001) // =======================================================
(PID.TID 0000.0001) // =======================================================
(PID.TID 0000.0001) // END OF FIELD                                          =
(PID.TID 0000.0001) // =======================================================
(PID.TID 0000.0001) 
(PID.TID 0000.0001) // =======================================================
(PID.TID 0000.0001) // Field hFacC at iteration          0
(PID.TID 0000.0001) // CMIN =          1.000000000000000E+00
(PID.TID 0000.0001) // CMAX =          1.000000000000000E+00
(PID.TID 0000.0001) // CINT =          0.000000000000000E+00
(PID.TID 0000.0001) // SYMBOLS (CMIN->CMAX): -abcdefghijklmnopqrstuvwxyz+
(PID.TID 0000.0001) //                  0.0: .
(PID.TID 0000.0001) // RANGE I (Lo:Hi:Step):(    -3:    24:     1)
(PID.TID 0000.0001) // RANGE J (Lo:Hi:Step):(    24:    -3:    -1)
(PID.TID 0000.0001) // RANGE K (Lo:Hi:Step):(   1:   1:   1)
(PID.TID 0000.0001) // =======================================================
(PID.TID 0000.0001) // =======================================================
(PID.TID 0000.0001) // END OF FIELD                                          =
(PID.TID 0000.0001) // =======================================================
(PID.TID 0000.0001) 
(PID.TID 0000.0001) // =======================================================
(PID.TID 0000.0001) // Field hFacW at iteration          0
(PID.TID 0000.0001) // CMIN =          1.000000000000000E+00
(PID.TID 0000.0001) // CMAX =          1.000000000000000E+00
(PID.TID 0000.0001) // CINT =          0.000000000000000E+00
(PID.TID 0000.0001) // SYMBOLS (CMIN->CMAX): -abcdefghijklmnopqrstuvwxyz+
(PID.TID 0000.0001) //                  0.0: .
(PID.TID 0000.0001) // RANGE I (Lo:Hi:Step):(    -3:    24:     1)
(PID.TID 0000.0001) // RANGE J (Lo:Hi:Step):(    24:    -3:    -1)
(PID.TID 0000.0001) // RANGE K (Lo:Hi:Step):(   1:   1:   1)
(PID.TID 0000.0001) // =======================================================
(PID.TID 0000.0001) // =======================================================
(PID.TID 0000.0001) // END OF FIELD                                          =
(PID.TID 0000.0001) // =======================================================
(PID.TID 0000.0001) 
(PID.TID 0000.0001) // =======================================================
(PID.TID 0000.0001) // Field hFacS at iteration          0
(PID.TID 0000.0001) // CMIN =          1.000000000000000E+00
(PID.TID 0000.0001) // CMAX =          1.000000000000000E+00
(PID.TID 0000.0001) // CINT =          0.000000000000000E+00
(PID.TID 0000.0001) // SYMBOLS (CMIN->CMAX): -abcdefghijklmnopqrstuvwxyz+
(PID.TID 0000.0001) //                  0.0: .
(PID.TID 0000.0001) // RANGE I (Lo:Hi:Step):(    -3:    24:     1)
(PID.TID 0000.0001) // RANGE J (Lo:Hi:Step):(    24:    -3:    -1)
(PID.TID 0000.0001) // RANGE K (Lo:Hi:Step):(   1:   1:   1)
(PID.TID 0000.0001) // =======================================================
(PID.TID 0000.0001) // =======================================================
(PID.TID 0000.0001) // END OF FIELD                                          =
(PID.TID 0000.0001) // =======================================================
(PID.TID 0000.0001) 
(PID.TID 0000.0001) 
(PID.TID 0000.0001) // =======================================================
(PID.TID 0000.0001) // Calendar configuration >>> START <<<
(PID.TID 0000.0001) // =======================================================
(PID.TID 0000.0001) 
(PID.TID 0000.0001) modelstart = /* Start time of the model integration [s] */
(PID.TID 0000.0001)                 0.000000000000000E+00
(PID.TID 0000.0001)     ;
(PID.TID 0000.0001) modelend  = /* End time of the model integration [s] */
(PID.TID 0000.0001)                 1.440000000000000E+04
(PID.TID 0000.0001)     ;
(PID.TID 0000.0001) modelStep = /* Time interval for a model forward step [s] */
(PID.TID 0000.0001)                 3.600000000000000E+03
(PID.TID 0000.0001)     ;
(PID.TID 0000.0001) usingGregorianCalendar= /* Calendar Type: Gregorian Calendar */
(PID.TID 0000.0001)                   F
(PID.TID 0000.0001)     ;
(PID.TID 0000.0001) usingJulianCalendar = /* Calendar Type: Julian Calendar */
(PID.TID 0000.0001)                   F
(PID.TID 0000.0001)     ;
(PID.TID 0000.0001) usingNoLeapYearCal  = /* Calendar Type: without Leap Year */
(PID.TID 0000.0001)                   F
(PID.TID 0000.0001)     ;
(PID.TID 0000.0001) usingModelCalendar  = /* Calendar Type: Model Calendar */
(PID.TID 0000.0001)                   T
(PID.TID 0000.0001)     ;
(PID.TID 0000.0001) modelStartDate YYYYMMDD = /* Model start date YYYY-MM-DD */
(PID.TID 0000.0001)                20000101
(PID.TID 0000.0001)     ;
(PID.TID 0000.0001)   modelStartDate HHMMSS = /* Model start date HH-MM-SS  */
(PID.TID 0000.0001)                       0
(PID.TID 0000.0001)     ;
(PID.TID 0000.0001) modelEndDate   YYYYMMDD = /* Model end date YYYY-MM-DD */
(PID.TID 0000.0001)                20000101
(PID.TID 0000.0001)     ;
(PID.TID 0000.0001)   modelEndDate   HHMMSS = /* Model end date HH-MM-SS  */
(PID.TID 0000.0001)                   40000
(PID.TID 0000.0001)     ;
(PID.TID 0000.0001) intyears = /* Number of calendar years affected by the integration */
(PID.TID 0000.0001)                       1
(PID.TID 0000.0001)     ;
(PID.TID 0000.0001) intmonths= /* Number of calendar months affected by the integration */
(PID.TID 0000.0001)                       1
(PID.TID 0000.0001)     ;
(PID.TID 0000.0001) intdays = /* Number of calendar days affected by the integration */
(PID.TID 0000.0001)                       1
(PID.TID 0000.0001)     ;
(PID.TID 0000.0001) modelIter0 = /* Base timestep number  */
(PID.TID 0000.0001)                       0
(PID.TID 0000.0001)     ;
(PID.TID 0000.0001) modelIterEnd = /* Final timestep number  */
(PID.TID 0000.0001)                       4
(PID.TID 0000.0001)     ;
(PID.TID 0000.0001) modelIntSteps= /* Number of model timesteps  */
(PID.TID 0000.0001)                       4
(PID.TID 0000.0001)     ;
(PID.TID 0000.0001) 
(PID.TID 0000.0001) // =======================================================
(PID.TID 0000.0001) // Calendar configuration  >>> END <<<
(PID.TID 0000.0001) // =======================================================
(PID.TID 0000.0001) 
(PID.TID 0000.0001) GAD_INIT_FIXED: GAD_OlMinSize=  0  0  1
(PID.TID 0000.0001) 
(PID.TID 0000.0001) // ===================================
(PID.TID 0000.0001) // GAD parameters :
(PID.TID 0000.0001) // ===================================
(PID.TID 0000.0001) tempAdvScheme =   /* Temp. Horiz.Advection scheme selector */
(PID.TID 0000.0001)                       3
(PID.TID 0000.0001)     ;
(PID.TID 0000.0001) tempVertAdvScheme =   /* Temp. Vert. Advection scheme selector */
(PID.TID 0000.0001)                       3
(PID.TID 0000.0001)     ;
(PID.TID 0000.0001) tempMultiDimAdvec =   /* use Muti-Dim Advec method for Temp */
(PID.TID 0000.0001)                   F
(PID.TID 0000.0001)     ;
(PID.TID 0000.0001) tempSOM_Advection = /* use 2nd Order Moment Advection for Temp */
(PID.TID 0000.0001)                   F
(PID.TID 0000.0001)     ;
(PID.TID 0000.0001) AdamsBashforthGt = /* apply Adams-Bashforth extrapolation on Gt */
(PID.TID 0000.0001)                   F
(PID.TID 0000.0001)     ;
(PID.TID 0000.0001) AdamsBashforth_T = /* apply Adams-Bashforth extrapolation on Temp */
(PID.TID 0000.0001)                   F
(PID.TID 0000.0001)     ;
(PID.TID 0000.0001) temp_stayPositive = /* use Smolarkiewicz Hack for Temperature */
(PID.TID 0000.0001)                   F
(PID.TID 0000.0001)     ;
(PID.TID 0000.0001) saltAdvScheme =   /* Salt. Horiz.advection scheme selector */
(PID.TID 0000.0001)                       3
(PID.TID 0000.0001)     ;
(PID.TID 0000.0001) saltVertAdvScheme =   /* Salt. Vert. Advection scheme selector */
(PID.TID 0000.0001)                       3
(PID.TID 0000.0001)     ;
(PID.TID 0000.0001) saltMultiDimAdvec =   /* use Muti-Dim Advec method for Salt */
(PID.TID 0000.0001)                   F
(PID.TID 0000.0001)     ;
(PID.TID 0000.0001) saltSOM_Advection = /* use 2nd Order Moment Advection for Salt */
(PID.TID 0000.0001)                   F
(PID.TID 0000.0001)     ;
(PID.TID 0000.0001) AdamsBashforthGs = /* apply Adams-Bashforth extrapolation on Gs */
(PID.TID 0000.0001)                   F
(PID.TID 0000.0001)     ;
(PID.TID 0000.0001) AdamsBashforth_S = /* apply Adams-Bashforth extrapolation on Salt */
(PID.TID 0000.0001)                   F
(PID.TID 0000.0001)     ;
(PID.TID 0000.0001) salt_stayPositive = /* use Smolarkiewicz Hack for Salinity */
(PID.TID 0000.0001)                   F
(PID.TID 0000.0001)     ;
(PID.TID 0000.0001) SmolarkiewiczMaxFrac = /* maximal fraction of tracer to flow out of a cell */
(PID.TID 0000.0001)                 1.000000000000000E+00
(PID.TID 0000.0001)     ;
(PID.TID 0000.0001) // ===================================
(PID.TID 0000.0001) 
(PID.TID 0000.0001) // =======================================================
(PID.TID 0000.0001) // External forcing (EXF) configuration >>> START <<<
(PID.TID 0000.0001) // =======================================================
(PID.TID 0000.0001) 
(PID.TID 0000.0001)  EXF general parameters:
(PID.TID 0000.0001) 
(PID.TID 0000.0001) exf_iprec = /* exf file precision */
(PID.TID 0000.0001)                      32
(PID.TID 0000.0001)     ;
(PID.TID 0000.0001) useExfYearlyFields = /* add extension _YEAR to input file names */
(PID.TID 0000.0001)                   F
(PID.TID 0000.0001)     ;
(PID.TID 0000.0001) twoDigitYear = /* use 2-digit year extension */
(PID.TID 0000.0001)                   F
(PID.TID 0000.0001)     ;
(PID.TID 0000.0001) useExfCheckRange = /* check for fields range */
(PID.TID 0000.0001)                   F
(PID.TID 0000.0001)     ;
(PID.TID 0000.0001) diags_opOceWeighted = /* weight flux diags by open-ocean fraction */
(PID.TID 0000.0001)                   F
(PID.TID 0000.0001)     ;
(PID.TID 0000.0001) exf_debugLev = /* select EXF-debug printing level */
(PID.TID 0000.0001)                       2
(PID.TID 0000.0001)     ;
(PID.TID 0000.0001) exf_monFreq  = /* EXF monitor frequency [ s ] */
(PID.TID 0000.0001)                 1.000000000000000E+00
(PID.TID 0000.0001)     ;
(PID.TID 0000.0001) exf_adjMonSelect = /* select group of exf AD-variables to monitor */
(PID.TID 0000.0001)                       1
(PID.TID 0000.0001)     ;
(PID.TID 0000.0001) repeatPeriod = /* period for cycling forcing dataset [ s ] */
(PID.TID 0000.0001)                 3.110400000000000E+07
(PID.TID 0000.0001)     ;
(PID.TID 0000.0001) climTempFreeze= /* Minimum climatological temperature [deg.C] */
(PID.TID 0000.0001)                -1.900000000000000E+00
(PID.TID 0000.0001)     ;
(PID.TID 0000.0001) windStressMax = /* Maximum absolute windstress [ Pa ] */
(PID.TID 0000.0001)                 2.000000000000000E+00
(PID.TID 0000.0001)     ;
(PID.TID 0000.0001) stressIsOnCgrid = /* set u,v_stress on Arakawa C-grid */
(PID.TID 0000.0001)                   F
(PID.TID 0000.0001)     ;
(PID.TID 0000.0001) rotateStressOnAgrid = /* rotate u,v_stress on Arakawa A-grid */
(PID.TID 0000.0001)                   F
(PID.TID 0000.0001)     ;
(PID.TID 0000.0001) cen2kel = /* conversion of deg. Centigrade to Kelvin [K] */
(PID.TID 0000.0001)                 2.731500000000000E+02
(PID.TID 0000.0001)     ;
(PID.TID 0000.0001) gravity_mks= /* gravitational acceleration [m/s^2] */
(PID.TID 0000.0001)                 9.810000000000000E+00
(PID.TID 0000.0001)     ;
(PID.TID 0000.0001) atmrho =  /* mean atmospheric density [kg/m^3] */
(PID.TID 0000.0001)                 1.200000000000000E+00
(PID.TID 0000.0001)     ;
(PID.TID 0000.0001) atmcp =  /* mean atmospheric specific heat [J/kg/K] */
(PID.TID 0000.0001)                 1.005000000000000E+03
(PID.TID 0000.0001)     ;
(PID.TID 0000.0001) flamb =  /* latent heat of evaporation [J/kg] */
(PID.TID 0000.0001)                 2.500000000000000E+06
(PID.TID 0000.0001)     ;
(PID.TID 0000.0001) flami =  /* latent heat of pure-ice melting [J/kg] */
(PID.TID 0000.0001)                 3.340000000000000E+05
(PID.TID 0000.0001)     ;
(PID.TID 0000.0001) cvapor_fac = /* const. for Saturation calculation [?] */
(PID.TID 0000.0001)                 6.403800000000000E+05
(PID.TID 0000.0001)     ;
(PID.TID 0000.0001) cvapor_exp = /* const. for Saturation calculation [?] */
(PID.TID 0000.0001)                 5.107400000000000E+03
(PID.TID 0000.0001)     ;
(PID.TID 0000.0001) cvapor_fac_ice= /* const. for Saturation calculation [?] */
(PID.TID 0000.0001)                 1.163780000000000E+07
(PID.TID 0000.0001)     ;
(PID.TID 0000.0001) cvapor_exp_ice= /* const. for Saturation calculation [?] */
(PID.TID 0000.0001)                 5.897800000000000E+03
(PID.TID 0000.0001)     ;
(PID.TID 0000.0001) humid_fac = /* humidity coef. in virtual temp. [(kg/kg)^-1] */
(PID.TID 0000.0001)                 6.060000000000000E-01
(PID.TID 0000.0001)     ;
(PID.TID 0000.0001) gamma_blk = /* adiabatic lapse rate [?] */
(PID.TID 0000.0001)                 1.000000000000000E-02
(PID.TID 0000.0001)     ;
(PID.TID 0000.0001) saltsat = /* reduction of Qsat over salty water [-] */
(PID.TID 0000.0001)                 9.800000000000000E-01
(PID.TID 0000.0001)     ;
(PID.TID 0000.0001) noNegativeEvap = /* prevent negative Evaporation */
(PID.TID 0000.0001)                   F
(PID.TID 0000.0001)     ;
(PID.TID 0000.0001) sstExtrapol = /* extrapolation coeff from lev. 1 & 2 to surf [-] */
(PID.TID 0000.0001)                 0.000000000000000E+00
(PID.TID 0000.0001)     ;
(PID.TID 0000.0001) cDrag_1 = /* coef used in drag calculation [m/s] */
(PID.TID 0000.0001)                 2.700000000000000E-03
(PID.TID 0000.0001)     ;
(PID.TID 0000.0001) cDrag_2 = /* coef used in drag calculation [-] */
(PID.TID 0000.0001)                 1.420000000000000E-04
(PID.TID 0000.0001)     ;
(PID.TID 0000.0001) cDrag_3 = /* coef used in drag calculation [s/m] */
(PID.TID 0000.0001)                 7.640000000000000E-05
(PID.TID 0000.0001)     ;
(PID.TID 0000.0001) cDrag_8 = /* coef used in drag calculation [(s/m)^6] */
(PID.TID 0000.0001)                 1.234567000000000E+05
(PID.TID 0000.0001)     ;
(PID.TID 0000.0001) cDragMax = /* maximum drag (Large and Yeager, 2009) [-] */
(PID.TID 0000.0001)                 1.234567000000000E+05
(PID.TID 0000.0001)     ;
(PID.TID 0000.0001) umax = /* at maximum wind (Large and Yeager, 2009) [m/s] */
(PID.TID 0000.0001)                 1.234567000000000E+05
(PID.TID 0000.0001)     ;
(PID.TID 0000.0001) cStanton_1 = /* coef used in Stanton number calculation [-] */
(PID.TID 0000.0001)                 3.270000000000000E-02
(PID.TID 0000.0001)     ;
(PID.TID 0000.0001) cStanton_2 = /* coef used in Stanton number calculation [-] */
(PID.TID 0000.0001)                 1.800000000000000E-02
(PID.TID 0000.0001)     ;
(PID.TID 0000.0001) cDalton = /* Dalton number [-] */
(PID.TID 0000.0001)                 3.460000000000000E-02
(PID.TID 0000.0001)     ;
(PID.TID 0000.0001) exf_scal_BulkCdn= /* Drag coefficient scaling factor [-] */
(PID.TID 0000.0001)                 1.000000000000000E+00
(PID.TID 0000.0001)     ;
(PID.TID 0000.0001) zolmin = /* minimum stability parameter [?] */
(PID.TID 0000.0001)                -1.000000000000000E+02
(PID.TID 0000.0001)     ;
(PID.TID 0000.0001) psim_fac = /* coef used in turbulent fluxes calculation [-] */
(PID.TID 0000.0001)                 5.000000000000000E+00
(PID.TID 0000.0001)     ;
(PID.TID 0000.0001) zref =  /* reference height [ m ] */
(PID.TID 0000.0001)                 1.000000000000000E+01
(PID.TID 0000.0001)     ;
(PID.TID 0000.0001) hu =  /* height of mean wind [ m ] */
(PID.TID 0000.0001)                 1.000000000000000E+01
(PID.TID 0000.0001)     ;
(PID.TID 0000.0001) ht =  /* height of mean temperature [ m ] */
(PID.TID 0000.0001)                 2.000000000000000E+00
(PID.TID 0000.0001)     ;
(PID.TID 0000.0001) hq =  /* height of mean spec.humidity [ m ] */
(PID.TID 0000.0001)                 2.000000000000000E+00
(PID.TID 0000.0001)     ;
(PID.TID 0000.0001) uMin = /* minimum wind speed [m/s] */
(PID.TID 0000.0001)                 5.000000000000000E-01
(PID.TID 0000.0001)     ;
(PID.TID 0000.0001) useStabilityFct_overIce= /* transfert Coeffs over sea-ice depend on stability */
(PID.TID 0000.0001)                   F
(PID.TID 0000.0001)     ;
(PID.TID 0000.0001) exf_iceCd = /* drag coefficient over sea-ice (fixed) [-] */
(PID.TID 0000.0001)                 1.630000000000000E-03
(PID.TID 0000.0001)     ;
(PID.TID 0000.0001) exf_iceCe = /* transfert coeff. over sea-ice, for Evap (fixed) [-] */
(PID.TID 0000.0001)                 1.630000000000000E-03
(PID.TID 0000.0001)     ;
(PID.TID 0000.0001) exf_iceCh = /* transfert coeff. over sea-ice, Sens.Heat.(fixed)[-] */
(PID.TID 0000.0001)                 1.630000000000000E-03
(PID.TID 0000.0001)     ;
(PID.TID 0000.0001) exf_albedo =  /* Sea-water albedo [-] */
(PID.TID 0000.0001)                 1.000000000000000E-01
(PID.TID 0000.0001)     ;
(PID.TID 0000.0001) useExfZenAlbedo = /* Sea-water albedo varies with zenith angle */
(PID.TID 0000.0001)                   F
(PID.TID 0000.0001)     ;
(PID.TID 0000.0001) select_ZenAlbedo = /* Sea-water albedo computation method */
(PID.TID 0000.0001)                       0
(PID.TID 0000.0001)     ;
(PID.TID 0000.0001) useExfZenIncoming = /* compute incoming solar radiation */
(PID.TID 0000.0001)                   F
(PID.TID 0000.0001)     ;
(PID.TID 0000.0001) ocean_emissivity = /* longwave ocean-surface emissivity [-] */
(PID.TID 0000.0001)                 9.700176366843034E-01
(PID.TID 0000.0001)     ;
(PID.TID 0000.0001) ice_emissivity = /* longwave seaice emissivity [-] */
(PID.TID 0000.0001)                 9.500000000000000E-01
(PID.TID 0000.0001)     ;
(PID.TID 0000.0001) snow_emissivity = /* longwave snow  emissivity [-] */
(PID.TID 0000.0001)                 9.500000000000000E-01
(PID.TID 0000.0001)     ;
(PID.TID 0000.0001) 
(PID.TID 0000.0001)  EXF main CPP flags:
(PID.TID 0000.0001) 
(PID.TID 0000.0001) // USE_EXF_INTERPOLATION:          NOT defined
(PID.TID 0000.0001) // ALLOW_ATM_TEMP:                     defined
(PID.TID 0000.0001) // ALLOW_ATM_WIND (useAtmWind):        defined
(PID.TID 0000.0001) // ALLOW_DOWNWARD_RADIATION:           defined
(PID.TID 0000.0001) // ALLOW_BULKFORMULAE:                 defined
(PID.TID 0000.0001) // ALLOW_READ_TURBFLUXES:          NOT defined
(PID.TID 0000.0001) // EXF_READ_EVAP:                  NOT defined
(PID.TID 0000.0001) // ALLOW_RUNOFF:                       defined
(PID.TID 0000.0001) // ALLOW_RUNOFTEMP:                NOT defined
(PID.TID 0000.0001) // ALLOW_SALTFLX:                  NOT defined
(PID.TID 0000.0001) 
(PID.TID 0000.0001) // =======================================================
(PID.TID 0000.0001) // External forcing (EXF) climatology configuration :
(PID.TID 0000.0001) // =======================================================
(PID.TID 0000.0001) 
(PID.TID 0000.0001) // ALLOW_CLIMSST_RELAXATION:       NOT defined
(PID.TID 0000.0001) 
(PID.TID 0000.0001) // ALLOW_CLIMSSS_RELAXATION:       NOT defined
(PID.TID 0000.0001) 
(PID.TID 0000.0001) // =======================================================
(PID.TID 0000.0001) // External forcing (EXF) configuration  >>> END <<<
(PID.TID 0000.0001) // =======================================================
(PID.TID 0000.0001) 
(PID.TID 0000.0001) PTRACERS_INIT_FIXED: updated GAD_OlMinSize=  2  0  1
(PID.TID 0000.0001) DARWIN_INIT_FIXED: water spectra:
(PID.TID 0000.0001) DARWIN_INIT_FIXED:  lam aw             bw
(PID.TID 0000.0001) DARWIN_INIT_FIXED: 400.         0.0053    0.0071
(PID.TID 0000.0001) DARWIN_INIT_FIXED: 425.         0.0048    0.0058
(PID.TID 0000.0001) DARWIN_INIT_FIXED: 450.         0.0085    0.0045
(PID.TID 0000.0001) DARWIN_INIT_FIXED: 475.         0.0117    0.0036
(PID.TID 0000.0001) DARWIN_INIT_FIXED: 500.         0.0223    0.0029
(PID.TID 0000.0001) DARWIN_INIT_FIXED: 525.         0.0422    0.0023
(PID.TID 0000.0001) DARWIN_INIT_FIXED: 550.         0.0554    0.0019
(PID.TID 0000.0001) DARWIN_INIT_FIXED: 575.         0.0826    0.0016
(PID.TID 0000.0001) DARWIN_INIT_FIXED: 600.         0.2095    0.0014
(PID.TID 0000.0001) DARWIN_INIT_FIXED: 625.         0.2848    0.0011
(PID.TID 0000.0001) DARWIN_INIT_FIXED: 650.         0.3530    0.0009
(PID.TID 0000.0001) DARWIN_INIT_FIXED: 675.         0.4552    0.0008
(PID.TID 0000.0001) DARWIN_INIT_FIXED: 700.         0.5507    0.0007
(PID.TID 0000.0001) DARWIN_INIT_FIXED:
(PID.TID 0000.0001) DARWIN_INIT_FIXED: phyto spectra:
(PID.TID 0000.0001) DARWIN_INIT_FIXED: type    1
(PID.TID 0000.0001) DARWIN_INIT_FIXED:  lam ap        ap_ps     bp        bbp            ap_mgC
(PID.TID 0000.0001) DARWIN_INIT_FIXED: 400.    0.0213    0.0213    0.0070         0.000003728  0.000000
(PID.TID 0000.0001) DARWIN_INIT_FIXED: 425.    0.0251    0.0251    0.0067         0.000003728  0.000000
(PID.TID 0000.0001) DARWIN_INIT_FIXED: 450.    0.0261    0.0261    0.0067         0.000003728  0.000000
(PID.TID 0000.0001) DARWIN_INIT_FIXED: 475.    0.0216    0.0216    0.0074         0.000003728  0.000000
(PID.TID 0000.0001) DARWIN_INIT_FIXED: 500.    0.0159    0.0159    0.0083         0.000003728  0.000000
(PID.TID 0000.0001) DARWIN_INIT_FIXED: 525.    0.0100    0.0100    0.0091         0.000003728  0.000000
(PID.TID 0000.0001) DARWIN_INIT_FIXED: 550.    0.0063    0.0063    0.0094         0.000003728  0.000000
(PID.TID 0000.0001) DARWIN_INIT_FIXED: 575.    0.0044    0.0044    0.0094         0.000003728  0.000000
(PID.TID 0000.0001) DARWIN_INIT_FIXED: 600.    0.0041    0.0041    0.0091         0.000003728  0.000000
(PID.TID 0000.0001) DARWIN_INIT_FIXED: 625.    0.0051    0.0051    0.0087         0.000003728  0.000000
(PID.TID 0000.0001) DARWIN_INIT_FIXED: 650.    0.0060    0.0060    0.0082         0.000003728  0.000000
(PID.TID 0000.0001) DARWIN_INIT_FIXED: 675.    0.0131    0.0131    0.0076         0.000003728  0.000000
(PID.TID 0000.0001) DARWIN_INIT_FIXED: 700.    0.0052    0.0052    0.0088         0.000003728  0.000000
(PID.TID 0000.0001) DARWIN_INIT_FIXED:
(PID.TID 0000.0001) DARWIN_INIT_FIXED: type    2
(PID.TID 0000.0001) DARWIN_INIT_FIXED:  lam ap        ap_ps     bp        bbp            ap_mgC
(PID.TID 0000.0001) DARWIN_INIT_FIXED: 400.    0.0323    0.0227    0.0077         0.000013127  0.000000
(PID.TID 0000.0001) DARWIN_INIT_FIXED: 425.    0.0406    0.0252    0.0071         0.000013127  0.000000
(PID.TID 0000.0001) DARWIN_INIT_FIXED: 450.    0.0379    0.0153    0.0068         0.000013127  0.000000
(PID.TID 0000.0001) DARWIN_INIT_FIXED: 475.    0.0304    0.0070    0.0062         0.000013127  0.000000
(PID.TID 0000.0001) DARWIN_INIT_FIXED: 500.    0.0304    0.0147    0.0058         0.000013127  0.000000
(PID.TID 0000.0001) DARWIN_INIT_FIXED: 525.    0.0268    0.0241    0.0053         0.000013127  0.000000
(PID.TID 0000.0001) DARWIN_INIT_FIXED: 550.    0.0292    0.0291    0.0049         0.000013127  0.000000
(PID.TID 0000.0001) DARWIN_INIT_FIXED: 575.    0.0135    0.0135    0.0047         0.000013127  0.000000
(PID.TID 0000.0001) DARWIN_INIT_FIXED: 600.    0.0064    0.0064    0.0042         0.000013127  0.000000
(PID.TID 0000.0001) DARWIN_INIT_FIXED: 625.    0.0072    0.0072    0.0038         0.000013127  0.000000
(PID.TID 0000.0001) DARWIN_INIT_FIXED: 650.    0.0077    0.0077    0.0034         0.000013127  0.000000
(PID.TID 0000.0001) DARWIN_INIT_FIXED: 675.    0.0147    0.0147    0.0032         0.000013127  0.000000
(PID.TID 0000.0001) DARWIN_INIT_FIXED: 700.    0.0070    0.0070    0.0033         0.000013127  0.000000
(PID.TID 0000.0001) DARWIN_INIT_FIXED:
(PID.TID 0000.0001) DARWIN_INIT_FIXED: type    3
(PID.TID 0000.0001) DARWIN_INIT_FIXED:  lam ap        ap_ps     bp        bbp            ap_mgC
(PID.TID 0000.0001) DARWIN_INIT_FIXED: 400.    0.0273    0.0174    0.0035         0.000014685  0.000000
(PID.TID 0000.0001) DARWIN_INIT_FIXED: 425.    0.0399    0.0229    0.0032         0.000014685  0.000000
(PID.TID 0000.0001) DARWIN_INIT_FIXED: 450.    0.0453    0.0172    0.0034         0.000014685  0.000000
(PID.TID 0000.0001) DARWIN_INIT_FIXED: 475.    0.0280    0.0049    0.0034         0.000014685  0.000000
(PID.TID 0000.0001) DARWIN_INIT_FIXED: 500.    0.0191    0.0011    0.0033         0.000014685  0.000000
(PID.TID 0000.0001) DARWIN_INIT_FIXED: 525.    0.0062    0.0017    0.0029         0.000014685  0.000000
(PID.TID 0000.0001) DARWIN_INIT_FIXED: 550.    0.0029    0.0026    0.0025         0.000014685  0.000000
(PID.TID 0000.0001) DARWIN_INIT_FIXED: 575.    0.0028    0.0028    0.0022         0.000014685  0.000000
(PID.TID 0000.0001) DARWIN_INIT_FIXED: 600.    0.0035    0.0035    0.0019         0.000014685  0.000000
(PID.TID 0000.0001) DARWIN_INIT_FIXED: 625.    0.0046    0.0046    0.0017         0.000014685  0.000000
(PID.TID 0000.0001) DARWIN_INIT_FIXED: 650.    0.0064    0.0064    0.0015         0.000014685  0.000000
(PID.TID 0000.0001) DARWIN_INIT_FIXED: 675.    0.0148    0.0148    0.0015         0.000014685  0.000000
(PID.TID 0000.0001) DARWIN_INIT_FIXED: 700.    0.0060    0.0060    0.0016         0.000014685  0.000000
(PID.TID 0000.0001) DARWIN_INIT_FIXED:
(PID.TID 0000.0001) DARWIN_INIT_FIXED: type    4
(PID.TID 0000.0001) DARWIN_INIT_FIXED:  lam ap        ap_ps     bp        bbp            ap_mgC
(PID.TID 0000.0001) DARWIN_INIT_FIXED: 400.    0.0420    0.0225    0.0035         0.000014685  0.000000
(PID.TID 0000.0001) DARWIN_INIT_FIXED: 425.    0.0604    0.0286    0.0032         0.000014685  0.000000
(PID.TID 0000.0001) DARWIN_INIT_FIXED: 450.    0.0728    0.0262    0.0034         0.000014685  0.000000
(PID.TID 0000.0001) DARWIN_INIT_FIXED: 475.    0.0584    0.0180    0.0034         0.000014685  0.000000
(PID.TID 0000.0001) DARWIN_INIT_FIXED: 500.    0.0353    0.0030    0.0033         0.000014685  0.000000
(PID.TID 0000.0001) DARWIN_INIT_FIXED: 525.    0.0132    0.0035    0.0029         0.000014685  0.000000
(PID.TID 0000.0001) DARWIN_INIT_FIXED: 550.    0.0068    0.0061    0.0025         0.000014685  0.000000
(PID.TID 0000.0001) DARWIN_INIT_FIXED: 575.    0.0055    0.0055    0.0022         0.000014685  0.000000
(PID.TID 0000.0001) DARWIN_INIT_FIXED: 600.    0.0060    0.0060    0.0019         0.000014685  0.000000
(PID.TID 0000.0001) DARWIN_INIT_FIXED: 625.    0.0067    0.0067    0.0017         0.000014685  0.000000
(PID.TID 0000.0001) DARWIN_INIT_FIXED: 650.    0.0114    0.0114    0.0015         0.000014685  0.000000
(PID.TID 0000.0001) DARWIN_INIT_FIXED: 675.    0.0159    0.0159    0.0015         0.000014685  0.000000
(PID.TID 0000.0001) DARWIN_INIT_FIXED: 700.    0.0072    0.0072    0.0016         0.000014685  0.000000
(PID.TID 0000.0001) DARWIN_INIT_FIXED:
(PID.TID 0000.0001) DARWIN_INIT_FIXED: type    5
(PID.TID 0000.0001) DARWIN_INIT_FIXED:  lam ap        ap_ps     bp        bbp            ap_mgC
(PID.TID 0000.0001) DARWIN_INIT_FIXED: 400.    0.0205    0.0205    0.0035         0.000000240  0.000000
(PID.TID 0000.0001) DARWIN_INIT_FIXED: 425.    0.0232    0.0232    0.0034         0.000000240  0.000000
(PID.TID 0000.0001) DARWIN_INIT_FIXED: 450.    0.0218    0.0218    0.0034         0.000000240  0.000000
(PID.TID 0000.0001) DARWIN_INIT_FIXED: 475.    0.0164    0.0164    0.0035         0.000000240  0.000000
(PID.TID 0000.0001) DARWIN_INIT_FIXED: 500.    0.0139    0.0139    0.0036         0.000000240  0.000000
(PID.TID 0000.0001) DARWIN_INIT_FIXED: 525.    0.0104    0.0104    0.0037         0.000000240  0.000000
(PID.TID 0000.0001) DARWIN_INIT_FIXED: 550.    0.0073    0.0073    0.0036         0.000000240  0.000000
(PID.TID 0000.0001) DARWIN_INIT_FIXED: 575.    0.0050    0.0050    0.0036         0.000000240  0.000000
(PID.TID 0000.0001) DARWIN_INIT_FIXED: 600.    0.0044    0.0044    0.0035         0.000000240  0.000000
(PID.TID 0000.0001) DARWIN_INIT_FIXED: 625.    0.0054    0.0054    0.0034         0.000000240  0.000000
(PID.TID 0000.0001) DARWIN_INIT_FIXED: 650.    0.0063    0.0063    0.0032         0.000000240  0.000000
(PID.TID 0000.0001) DARWIN_INIT_FIXED: 675.    0.0139    0.0139    0.0030         0.000000240  0.000000
(PID.TID 0000.0001) DARWIN_INIT_FIXED: 700.    0.0051    0.0051    0.0031         0.000000240  0.000000
(PID.TID 0000.0001) DARWIN_INIT_FIXED:
(PID.TID 0000.0001) DARWIN_INIT_FIXED: type    6
(PID.TID 0000.0001) DARWIN_INIT_FIXED:  lam ap        ap_ps     bp        bbp            ap_mgC
(PID.TID 0000.0001) DARWIN_INIT_FIXED: 400.    0.0300    0.0288    0.0066         0.000002516  0.000000
(PID.TID 0000.0001) DARWIN_INIT_FIXED: 425.    0.0338    0.0320    0.0064         0.000002516  0.000000
(PID.TID 0000.0001) DARWIN_INIT_FIXED: 450.    0.0354    0.0327    0.0065         0.000002516  0.000000
(PID.TID 0000.0001) DARWIN_INIT_FIXED: 475.    0.0326    0.0291    0.0068         0.000002516  0.000000
(PID.TID 0000.0001) DARWIN_INIT_FIXED: 500.    0.0217    0.0193    0.0076         0.000002516  0.000000
(PID.TID 0000.0001) DARWIN_INIT_FIXED: 525.    0.0144    0.0141    0.0081         0.000002516  0.000000
(PID.TID 0000.0001) DARWIN_INIT_FIXED: 550.    0.0091    0.0091    0.0084         0.000002516  0.000000
(PID.TID 0000.0001) DARWIN_INIT_FIXED: 575.    0.0066    0.0066    0.0084         0.000002516  0.000000
(PID.TID 0000.0001) DARWIN_INIT_FIXED: 600.    0.0066    0.0066    0.0082         0.000002516  0.000000
(PID.TID 0000.0001) DARWIN_INIT_FIXED: 625.    0.0067    0.0067    0.0080         0.000002516  0.000000
(PID.TID 0000.0001) DARWIN_INIT_FIXED: 650.    0.0069    0.0069    0.0077         0.000002516  0.000000
(PID.TID 0000.0001) DARWIN_INIT_FIXED: 675.    0.0140    0.0140    0.0073         0.000002516  0.000000
(PID.TID 0000.0001) DARWIN_INIT_FIXED: 700.    0.0045    0.0045    0.0080         0.000002516  0.000000
(PID.TID 0000.0001) DARWIN_INIT_FIXED:
(PID.TID 0000.0001) DARWIN_INIT_FIXED: type    7
(PID.TID 0000.0001) DARWIN_INIT_FIXED:  lam ap        ap_ps     bp        bbp            ap_mgC
(PID.TID 0000.0001) DARWIN_INIT_FIXED: 400.    0.0267    0.0192    0.0173         0.000051850  0.000000
(PID.TID 0000.0001) DARWIN_INIT_FIXED: 425.    0.0325    0.0212    0.0166         0.000051850  0.000000
(PID.TID 0000.0001) DARWIN_INIT_FIXED: 450.    0.0284    0.0118    0.0157         0.000051850  0.000000
(PID.TID 0000.0001) DARWIN_INIT_FIXED: 475.    0.0235    0.0041    0.0148         0.000051850  0.000000
(PID.TID 0000.0001) DARWIN_INIT_FIXED: 500.    0.0188    0.0064    0.0144         0.000051850  0.000000
(PID.TID 0000.0001) DARWIN_INIT_FIXED: 525.    0.0130    0.0106    0.0135         0.000051850  0.000000
(PID.TID 0000.0001) DARWIN_INIT_FIXED: 550.    0.0111    0.0111    0.0121         0.000051850  0.000000
(PID.TID 0000.0001) DARWIN_INIT_FIXED: 575.    0.0086    0.0086    0.0118         0.000051850  0.000000
(PID.TID 0000.0001) DARWIN_INIT_FIXED: 600.    0.0078    0.0078    0.0117         0.000051850  0.000000
(PID.TID 0000.0001) DARWIN_INIT_FIXED: 625.    0.0091    0.0091    0.0115         0.000051850  0.000000
(PID.TID 0000.0001) DARWIN_INIT_FIXED: 650.    0.0110    0.0110    0.0106         0.000051850  0.000000
(PID.TID 0000.0001) DARWIN_INIT_FIXED: 675.    0.0170    0.0170    0.0097         0.000051850  0.000000
(PID.TID 0000.0001) DARWIN_INIT_FIXED: 700.    0.0065    0.0065    0.0090         0.000051850  0.000000
(PID.TID 0000.0001) DARWIN_INIT_FIXED:
(PID.TID 0000.0001) DARWIN_INIT_FIXED: type    8
(PID.TID 0000.0001) DARWIN_INIT_FIXED:  lam ap        ap_ps     bp        bbp            ap_mgC
(PID.TID 0000.0001) DARWIN_INIT_FIXED: 400.    0.0474    0.0274    0.0077         0.000013127  0.000000
(PID.TID 0000.0001) DARWIN_INIT_FIXED: 425.    0.0576    0.0283    0.0071         0.000013127  0.000000
(PID.TID 0000.0001) DARWIN_INIT_FIXED: 450.    0.0543    0.0160    0.0068         0.000013127  0.000000
(PID.TID 0000.0001) DARWIN_INIT_FIXED: 475.    0.0444    0.0062    0.0062         0.000013127  0.000000
(PID.TID 0000.0001) DARWIN_INIT_FIXED: 500.    0.0416    0.0138    0.0058         0.000013127  0.000000
(PID.TID 0000.0001) DARWIN_INIT_FIXED: 525.    0.0270    0.0224    0.0053         0.000013127  0.000000
(PID.TID 0000.0001) DARWIN_INIT_FIXED: 550.    0.0270    0.0269    0.0049         0.000013127  0.000000
(PID.TID 0000.0001) DARWIN_INIT_FIXED: 575.    0.0144    0.0144    0.0047         0.000013127  0.000000
(PID.TID 0000.0001) DARWIN_INIT_FIXED: 600.    0.0076    0.0076    0.0042         0.000013127  0.000000
(PID.TID 0000.0001) DARWIN_INIT_FIXED: 625.    0.0089    0.0089    0.0038         0.000013127  0.000000
(PID.TID 0000.0001) DARWIN_INIT_FIXED: 650.    0.0098    0.0098    0.0034         0.000013127  0.000000
(PID.TID 0000.0001) DARWIN_INIT_FIXED: 675.    0.0200    0.0200    0.0032         0.000013127  0.000000
(PID.TID 0000.0001) DARWIN_INIT_FIXED: 700.    0.0100    0.0100    0.0033         0.000013127  0.000000
(PID.TID 0000.0001) DARWIN_INIT_FIXED:
(PID.TID 0000.0001) DARWIN_INIT_FIXED: type    9
(PID.TID 0000.0001) DARWIN_INIT_FIXED:  lam ap        ap_ps     bp        bbp            ap_mgC
(PID.TID 0000.0001) DARWIN_INIT_FIXED: 400.    0.0162    0.0162    0.0007         0.000001735  0.000000
(PID.TID 0000.0001) DARWIN_INIT_FIXED: 425.    0.0178    0.0178    0.0007         0.000001735  0.000000
(PID.TID 0000.0001) DARWIN_INIT_FIXED: 450.    0.0180    0.0180    0.0007         0.000001735  0.000000
(PID.TID 0000.0001) DARWIN_INIT_FIXED: 475.    0.0165    0.0165    0.0007         0.000001735  0.000000
(PID.TID 0000.0001) DARWIN_INIT_FIXED: 500.    0.0135    0.0135    0.0007         0.000001735  0.000000
(PID.TID 0000.0001) DARWIN_INIT_FIXED: 525.    0.0110    0.0110    0.0008         0.000001735  0.000000
(PID.TID 0000.0001) DARWIN_INIT_FIXED: 550.    0.0082    0.0082    0.0008         0.000001735  0.000000
(PID.TID 0000.0001) DARWIN_INIT_FIXED: 575.    0.0051    0.0051    0.0009         0.000001735  0.000000
(PID.TID 0000.0001) DARWIN_INIT_FIXED: 600.    0.0044    0.0044    0.0009         0.000001735  0.000000
(PID.TID 0000.0001) DARWIN_INIT_FIXED: 625.    0.0048    0.0048    0.0009         0.000001735  0.000000
(PID.TID 0000.0001) DARWIN_INIT_FIXED: 650.    0.0058    0.0058    0.0009         0.000001735  0.000000
(PID.TID 0000.0001) DARWIN_INIT_FIXED: 675.    0.0105    0.0105    0.0009         0.000001735  0.000000
(PID.TID 0000.0001) DARWIN_INIT_FIXED: 700.    0.0048    0.0048    0.0010         0.000001735  0.000000
(PID.TID 0000.0001) DARWIN_INIT_FIXED:
(PID.TID 0000.0001) DARWIN_INIT_FIXED: type   10
(PID.TID 0000.0001) DARWIN_INIT_FIXED:  lam ap        ap_ps     bp        bbp            ap_mgC
(PID.TID 0000.0001) DARWIN_INIT_FIXED: 400.    0.0310    0.0223    0.0064         0.000012850  0.000000
(PID.TID 0000.0001) DARWIN_INIT_FIXED: 425.    0.0387    0.0253    0.0060         0.000012850  0.000000
(PID.TID 0000.0001) DARWIN_INIT_FIXED: 450.    0.0396    0.0206    0.0059         0.000012850  0.000000
(PID.TID 0000.0001) DARWIN_INIT_FIXED: 475.    0.0318    0.0137    0.0058         0.000012850  0.000000
(PID.TID 0000.0001) DARWIN_INIT_FIXED: 500.    0.0246    0.0112    0.0059         0.000012850  0.000000
(PID.TID 0000.0001) DARWIN_INIT_FIXED: 525.    0.0147    0.0118    0.0057         0.000012850  0.000000
(PID.TID 0000.0001) DARWIN_INIT_FIXED: 550.    0.0118    0.0116    0.0055         0.000012850  0.000000
(PID.TID 0000.0001) DARWIN_INIT_FIXED: 575.    0.0074    0.0074    0.0053         0.000012850  0.000000
(PID.TID 0000.0001) DARWIN_INIT_FIXED: 600.    0.0058    0.0058    0.0051         0.000012850  0.000000
(PID.TID 0000.0001) DARWIN_INIT_FIXED: 625.    0.0067    0.0067    0.0048         0.000012850  0.000000
(PID.TID 0000.0001) DARWIN_INIT_FIXED: 650.    0.0082    0.0082    0.0045         0.000012850  0.000000
(PID.TID 0000.0001) DARWIN_INIT_FIXED: 675.    0.0155    0.0155    0.0042         0.000012850  0.000000
(PID.TID 0000.0001) DARWIN_INIT_FIXED: 700.    0.0066    0.0066    0.0044         0.000012850  0.000000
(PID.TID 0000.0001) DARWIN_INIT_FIXED:
(PID.TID 0000.0001) DARWIN_INIT_FIXED: type   11
(PID.TID 0000.0001) DARWIN_INIT_FIXED:  lam ap        ap_ps     bp        bbp            ap_mgC
(PID.TID 0000.0001) DARWIN_INIT_FIXED: 400.    0.0000    0.0000    0.0064         0.000012850  0.000000
(PID.TID 0000.0001) DARWIN_INIT_FIXED: 425.    0.0000    0.0000    0.0060         0.000012850  0.000000
(PID.TID 0000.0001) DARWIN_INIT_FIXED: 450.    0.0000    0.0000    0.0059         0.000012850  0.000000
(PID.TID 0000.0001) DARWIN_INIT_FIXED: 475.    0.0000    0.0000    0.0058         0.000012850  0.000000
(PID.TID 0000.0001) DARWIN_INIT_FIXED: 500.    0.0000    0.0000    0.0059         0.000012850  0.000000
(PID.TID 0000.0001) DARWIN_INIT_FIXED: 525.    0.0000    0.0000    0.0057         0.000012850  0.000000
(PID.TID 0000.0001) DARWIN_INIT_FIXED: 550.    0.0000    0.0000    0.0055         0.000012850  0.000000
(PID.TID 0000.0001) DARWIN_INIT_FIXED: 575.    0.0000    0.0000    0.0053         0.000012850  0.000000
(PID.TID 0000.0001) DARWIN_INIT_FIXED: 600.    0.0000    0.0000    0.0051         0.000012850  0.000000
(PID.TID 0000.0001) DARWIN_INIT_FIXED: 625.    0.0000    0.0000    0.0048         0.000012850  0.000000
(PID.TID 0000.0001) DARWIN_INIT_FIXED: 650.    0.0000    0.0000    0.0045         0.000012850  0.000000
(PID.TID 0000.0001) DARWIN_INIT_FIXED: 675.    0.0000    0.0000    0.0042         0.000012850  0.000000
(PID.TID 0000.0001) DARWIN_INIT_FIXED: 700.    0.0000    0.0000    0.0044         0.000012850  0.000000
(PID.TID 0000.0001) DARWIN_INIT_FIXED:
(PID.TID 0000.0001) DARWIN_INIT_FIXED: type   12
(PID.TID 0000.0001) DARWIN_INIT_FIXED:  lam ap        ap_ps     bp        bbp            ap_mgC
(PID.TID 0000.0001) DARWIN_INIT_FIXED: 400.    0.0000    0.0000    0.0000         0.000000000  0.000000
(PID.TID 0000.0001) DARWIN_INIT_FIXED: 425.    0.0000    0.0000    0.0000         0.000000000  0.000000
(PID.TID 0000.0001) DARWIN_INIT_FIXED: 450.    0.0000    0.0000    0.0000         0.000000000  0.000000
(PID.TID 0000.0001) DARWIN_INIT_FIXED: 475.    0.0000    0.0000    0.0000         0.000000000  0.000000
(PID.TID 0000.0001) DARWIN_INIT_FIXED: 500.    0.0000    0.0000    0.0000         0.000000000  0.000000
(PID.TID 0000.0001) DARWIN_INIT_FIXED: 525.    0.0000    0.0000    0.0000         0.000000000  0.000000
(PID.TID 0000.0001) DARWIN_INIT_FIXED: 550.    0.0000    0.0000    0.0000         0.000000000  0.000000
(PID.TID 0000.0001) DARWIN_INIT_FIXED: 575.    0.0000    0.0000    0.0000         0.000000000  0.000000
(PID.TID 0000.0001) DARWIN_INIT_FIXED: 600.    0.0000    0.0000    0.0000         0.000000000  0.000000
(PID.TID 0000.0001) DARWIN_INIT_FIXED: 625.    0.0000    0.0000    0.0000         0.000000000  0.000000
(PID.TID 0000.0001) DARWIN_INIT_FIXED: 650.    0.0000    0.0000    0.0000         0.000000000  0.000000
(PID.TID 0000.0001) DARWIN_INIT_FIXED: 675.    0.0000    0.0000    0.0000         0.000000000  0.000000
(PID.TID 0000.0001) DARWIN_INIT_FIXED: 700.    0.0000    0.0000    0.0000         0.000000000  0.000000
(PID.TID 0000.0001) DARWIN_INIT_FIXED:
(PID.TID 0000.0001) DARWIN_INIT_FIXED: particulate spectra:
(PID.TID 0000.0001) DARWIN_INIT_FIXED:  lam apart          bpart          bbpart
(PID.TID 0000.0001) DARWIN_INIT_FIXED: 400.   2.824330E-17   4.896760E-16   2.060000E-18
(PID.TID 0000.0001) DARWIN_INIT_FIXED: 425.   2.384260E-17   4.697270E-16   2.060000E-18
(PID.TID 0000.0001) DARWIN_INIT_FIXED: 450.   1.914990E-17   4.456040E-16   2.060000E-18
(PID.TID 0000.0001) DARWIN_INIT_FIXED: 475.   1.545700E-17   4.237200E-16   2.060000E-18
(PID.TID 0000.0001) DARWIN_INIT_FIXED: 500.   1.251420E-17   4.037880E-16   2.060000E-18
(PID.TID 0000.0001) DARWIN_INIT_FIXED: 525.   1.014960E-17   3.856220E-16   2.060000E-18
(PID.TID 0000.0001) DARWIN_INIT_FIXED: 550.   8.241810E-18   3.688870E-16   2.060000E-18
(PID.TID 0000.0001) DARWIN_INIT_FIXED: 575.   6.696050E-18   3.535780E-16   2.060000E-18
(PID.TID 0000.0001) DARWIN_INIT_FIXED: 600.   5.441650E-18   3.393690E-16   2.060000E-18
(PID.TID 0000.0001) DARWIN_INIT_FIXED: 625.   4.422180E-18   3.262740E-16   2.060000E-18
(PID.TID 0000.0001) DARWIN_INIT_FIXED: 650.   3.593350E-18   3.140900E-16   2.060000E-18
(PID.TID 0000.0001) DARWIN_INIT_FIXED: 675.   2.918950E-18   3.027390E-16   2.060000E-18
(PID.TID 0000.0001) DARWIN_INIT_FIXED: 700.   2.499330E-18   2.948320E-16   2.060000E-18
(PID.TID 0000.0001) DARWIN_INIT_FIXED:
(PID.TID 0000.0001) DARWIN_INIT_FIXED: particulate spectra in phosphorus units:
(PID.TID 0000.0001) DARWIN_INIT_FIXED:  lam apart_P        bpart_P        bbpart_P
(PID.TID 0000.0001) DARWIN_INIT_FIXED: 400.    2.824330000   48.967600000 0.206000000000
(PID.TID 0000.0001) DARWIN_INIT_FIXED: 425.    2.384260000   46.972700000 0.206000000000
(PID.TID 0000.0001) DARWIN_INIT_FIXED: 450.    1.914990000   44.560400000 0.206000000000
(PID.TID 0000.0001) DARWIN_INIT_FIXED: 475.    1.545700000   42.372000000 0.206000000000
(PID.TID 0000.0001) DARWIN_INIT_FIXED: 500.    1.251420000   40.378800000 0.206000000000
(PID.TID 0000.0001) DARWIN_INIT_FIXED: 525.    1.014960000   38.562200000 0.206000000000
(PID.TID 0000.0001) DARWIN_INIT_FIXED: 550.    0.824181000   36.888700000 0.206000000000
(PID.TID 0000.0001) DARWIN_INIT_FIXED: 575.    0.669605000   35.357800000 0.206000000000
(PID.TID 0000.0001) DARWIN_INIT_FIXED: 600.    0.544165000   33.936900000 0.206000000000
(PID.TID 0000.0001) DARWIN_INIT_FIXED: 625.    0.442218000   32.627400000 0.206000000000
(PID.TID 0000.0001) DARWIN_INIT_FIXED: 650.    0.359335000   31.409000000 0.206000000000
(PID.TID 0000.0001) DARWIN_INIT_FIXED: 675.    0.291895000   30.273900000 0.206000000000
(PID.TID 0000.0001) DARWIN_INIT_FIXED: 700.    0.249933000   29.483200000 0.206000000000
(PID.TID 0000.0001) DARWIN_INIT_FIXED:
(PID.TID 0000.0001) DARWIN_RANDOM_INIT: port_rand               56   0.3052905000000000
(PID.TID 0000.0001)  DARWIN_INIT_FIXED: opening data.traits
(PID.TID 0000.0001)  OPEN_COPY_DATA_FILE: opening file data.traits
(PID.TID 0000.0001) // =======================================================
(PID.TID 0000.0001) // Parameter file "data.traits"
(PID.TID 0000.0001) // =======================================================
(PID.TID 0000.0001) > &DARWIN_TRAITS
(PID.TID 0000.0001) > amminhib(1)= 0.,
(PID.TID 0000.0001) > VmaxNH4(1)= 0.,
(PID.TID 0000.0001) > VmaxNO2(1)= 0.,
(PID.TID 0000.0001) > VmaxNO3(1)= 3.720236453201971e-06,
(PID.TID 0000.0001) > VmaxPO4(1)= 2.325E-08,
(PID.TID 0000.0001) > VmaxFeT(1)= 3.00E-09,
(PID.TID 0000.0001) ># remove nitrogen uptake regulation
(PID.TID 0000.0001) > hillnumDIN(1)= 0.,
(PID.TID 0000.0001) > Qnmax(1)= 1000,
(PID.TID 0000.0001) > Qnmin(1)= 0.,
(PID.TID 0000.0001) > Qpmax(1)= 1000.,
(PID.TID 0000.0001) > Qpmin(1)= 0.,
(PID.TID 0000.0001) > Qfemax(1)= 1000.,
(PID.TID 0000.0001) > Qfemin(1)= 0.,
(PID.TID 0000.0001) > ksatNO3(1)= 0.225,
(PID.TID 0000.0001) > ksatPO4(1)= 3.65E-00,
(PID.TID 0000.0001) > ksatFeT(1)= 2.85E-04,
(PID.TID 0000.0001) > ksatSiO2(1)= 0.,
(PID.TID 0000.0001) ># time scale for excess nitrogen exudation
(PID.TID 0000.0001) > tauExN(1)= 3600.,
(PID.TID 0000.0001) > tauExP(1)= 3600.,
(PID.TID 0000.0001) > tauExC(1)= 3600.,
(PID.TID 0000.0001) > tauExFe(1)= 3600.,
(PID.TID 0000.0001) >
(PID.TID 0000.0001) >#Here Qfe_max is 0.00024
(PID.TID 0000.0001) > Qfe_max(1) = 2.4360E-04
(PID.TID 0000.0001) >
(PID.TID 0000.0001) >#adjusting Qp_max
(PID.TID 0000.0001) >#default = 25/(3.097e16) ~8.07E-16
(PID.TID 0000.0001) > Qp_max(1) = 0.0052E-00
(PID.TID 0000.0001) >
(PID.TID 0000.0001) >
(PID.TID 0000.0001) >#
(PID.TID 0000.0001) > amminhib(2)= 0.,
(PID.TID 0000.0001) > VmaxNH4(2)= 0.,
(PID.TID 0000.0001) > VmaxNO2(2)= 0.,
(PID.TID 0000.0001) > VmaxNO3(2)= 6.85E-06,
(PID.TID 0000.0001) > VmaxPO4(2)= 4.28E-08,
(PID.TID 0000.0001) > VmaxFeT(2)= 3.00E-09,
(PID.TID 0000.0001) ># remove nitrogen uptake regulation
(PID.TID 0000.0001) > hillnumDIN(2)= 0.,
(PID.TID 0000.0001) > Qnmax(2)= 1000,
(PID.TID 0000.0001) > Qnmin(2)= 0.,
(PID.TID 0000.0001) > Qpmax(2)= 1000.,
(PID.TID 0000.0001) > Qpmin(2)= 0.,
(PID.TID 0000.0001) > Qfemax(2)= 1000.,
(PID.TID 0000.0001) > Qfemin(2)= 0.,
(PID.TID 0000.0001) > ksatNO3(2)= 0.700,
(PID.TID 0000.0001) > ksatPO4(2)= 9.9E-00,
(PID.TID 0000.0001) > ksatFeT(2)= 3.5E-04,
(PID.TID 0000.0001) > ksatSiO2(2)= 0.,
(PID.TID 0000.0001) ># time scale for excess nitrogen exudation
(PID.TID 0000.0001) > tauExN(2)= 3600.,
(PID.TID 0000.0001) > tauExP(2)= 3600.,
(PID.TID 0000.0001) > tauExC(2)= 3600.,
(PID.TID 0000.0001) > tauExFe(2)= 3600.,
(PID.TID 0000.0001) >
(PID.TID 0000.0001) >#Here Qfe_max is 0.00024
(PID.TID 0000.0001) > Qfe_max(2) = 2.4360E-04
(PID.TID 0000.0001) >
(PID.TID 0000.0001) >#adjusting Qp_max
(PID.TID 0000.0001) >#default = 25/(3.097e16) ~8.07E-16
(PID.TID 0000.0001) > Qp_max(2) = 0.0194E-00
(PID.TID 0000.0001) >
(PID.TID 0000.0001) > Sf(2) = 1.20,
(PID.TID 0000.0001) >
(PID.TID 0000.0001) > EXPORTFRACMORT=
(PID.TID 0000.0001) >1.000000000000e-01,
(PID.TID 0000.0001) >1.000000000000e-01,
(PID.TID 0000.0001) >
(PID.TID 0000.0001) > EXPORTFRACMORT2=
(PID.TID 0000.0001) >1.000000000000e-01,
(PID.TID 0000.0001) >1.000000000000e-01,
(PID.TID 0000.0001) >
(PID.TID 0000.0001) > PALAT=  0.0 ,
(PID.TID 0000.0001) >
(PID.TID 0000.0001) > ASSEFF=  0.1 ,
(PID.TID 0000.0001) >
(PID.TID 0000.0001) > GRAZEMAX=
(PID.TID 0000.0001) >0.0000000000000000e+00,
(PID.TID 0000.0001) >
(PID.TID 0000.0001) >  EXPORTFRACPREYPRED= 1.000000000000000e-01 ,
(PID.TID 0000.0001) >
(PID.TID 0000.0001) > MORT2=
(PID.TID 0000.0001) >0.0000000000000000e+00,
(PID.TID 0000.0001) >0.0000000000000000e+00,
(PID.TID 0000.0001) >
(PID.TID 0000.0001) > EXPORTFRACMORT(3:4)= 0.1, 0.1,
(PID.TID 0000.0001) >#
(PID.TID 0000.0001) > EXPORTFRACMORT2(3:4)= 0.1, 0.1,
(PID.TID 0000.0001) >#
(PID.TID 0000.0001) > PALAT=    16*0.0,
(PID.TID 0000.0001) > PALAT(1, 3)= 1.0,
(PID.TID 0000.0001) > PALAT(2, 4)= 1.0,
(PID.TID 0000.0001) > PALAT(1, 4)= 1.0,
(PID.TID 0000.0001) > PALAT(2, 3)= 1.0,
(PID.TID 0000.0001) >#
(PID.TID 0000.0001) > ASSEFF=   16*0.7,
(PID.TID 0000.0001) >#
(PID.TID 0000.0001) > GRAZEMAX(3:4)=
(PID.TID 0000.0001) > 0.0e-06,
(PID.TID 0000.0001) > 0.0e-07,
(PID.TID 0000.0001) >#
(PID.TID 0000.0001) > EXPORTFRACPREYPRED= 16*0.1,
(PID.TID 0000.0001) >#
(PID.TID 0000.0001) > MORT(1:2) = 2*2.5e-7
(PID.TID 0000.0001) > MORT2(3:4)= 2*1e-6,
(PID.TID 0000.0001) > /
(PID.TID 0000.0001) > &DARWIN_RADTRANS_TRAITS
(PID.TID 0000.0001) > /
(PID.TID 0000.0001) 
(PID.TID 0000.0001)  ===================================
(PID.TID 0000.0001) ------------------------------------------------------------
(PID.TID 0000.0001) DIAGNOSTICS_SET_LEVELS: done
(PID.TID 0000.0001)  Total Nb of available Diagnostics: ndiagt=  1207
(PID.TID 0000.0001)  write list of available Diagnostics to file: available_diagnostics.log
(PID.TID 0000.0001) SETDIAG: Allocate 23 x  1 Levels for Diagnostic #   267 TRAC01
(PID.TID 0000.0001) SETDIAG: Allocate 23 x  1 Levels for Diagnostic #   282 TRAC02
(PID.TID 0000.0001) SETDIAG: Allocate 23 x  1 Levels for Diagnostic #   297 TRAC03
(PID.TID 0000.0001) SETDIAG: Allocate 23 x  1 Levels for Diagnostic #   312 TRAC04
(PID.TID 0000.0001) SETDIAG: Allocate 23 x  1 Levels for Diagnostic #   327 TRAC05
(PID.TID 0000.0001) SETDIAG: Allocate 23 x  1 Levels for Diagnostic #   342 TRAC06
(PID.TID 0000.0001) SETDIAG: Allocate 23 x  1 Levels for Diagnostic #   357 TRAC07
(PID.TID 0000.0001) SETDIAG: Allocate 23 x  1 Levels for Diagnostic #   372 TRAC08
(PID.TID 0000.0001) SETDIAG: Allocate 23 x  1 Levels for Diagnostic #   387 TRAC09
(PID.TID 0000.0001) SETDIAG: Allocate 23 x  1 Levels for Diagnostic #   402 TRAC10
(PID.TID 0000.0001) SETDIAG: Allocate 23 x  1 Levels for Diagnostic #   417 TRAC11
(PID.TID 0000.0001) SETDIAG: Allocate 23 x  1 Levels for Diagnostic #   432 TRAC12
(PID.TID 0000.0001) SETDIAG: Allocate 23 x  1 Levels for Diagnostic #   447 TRAC13
(PID.TID 0000.0001) SETDIAG: Allocate 23 x  1 Levels for Diagnostic #   462 TRAC14
(PID.TID 0000.0001) SETDIAG: Allocate 23 x  1 Levels for Diagnostic #   477 TRAC15
(PID.TID 0000.0001) SETDIAG: Allocate 23 x  1 Levels for Diagnostic #   492 TRAC16
(PID.TID 0000.0001) SETDIAG: Allocate 23 x  1 Levels for Diagnostic #   507 TRAC17
(PID.TID 0000.0001) SETDIAG: Allocate 23 x  1 Levels for Diagnostic #   522 TRAC18
(PID.TID 0000.0001) SETDIAG: Allocate 23 x  1 Levels for Diagnostic #   537 TRAC19
(PID.TID 0000.0001) SETDIAG: Allocate 23 x  1 Levels for Diagnostic #   552 TRAC20
(PID.TID 0000.0001) SETDIAG: Allocate 23 x  1 Levels for Diagnostic #   567 TRAC21
(PID.TID 0000.0001) SETDIAG: Allocate 23 x  1 Levels for Diagnostic #   582 TRAC22
(PID.TID 0000.0001) SETDIAG: Allocate 23 x  1 Levels for Diagnostic #   597 TRAC23
(PID.TID 0000.0001) SETDIAG: Allocate 23 x  1 Levels for Diagnostic #   612 TRAC24
(PID.TID 0000.0001) SETDIAG: Allocate 23 x  1 Levels for Diagnostic #   627 TRAC25
(PID.TID 0000.0001) SETDIAG: Allocate 23 x  1 Levels for Diagnostic #   642 TRAC26
(PID.TID 0000.0001) SETDIAG: Allocate 23 x  1 Levels for Diagnostic #   657 TRAC27
(PID.TID 0000.0001) SETDIAG: Allocate 23 x  1 Levels for Diagnostic #   672 TRAC28
(PID.TID 0000.0001) SETDIAG: Allocate 23 x  1 Levels for Diagnostic #   687 TRAC29
(PID.TID 0000.0001) SETDIAG: Allocate 23 x  1 Levels for Diagnostic #   702 TRAC30
(PID.TID 0000.0001) SETDIAG: Allocate 23 x  1 Levels for Diagnostic #   717 TRAC31
(PID.TID 0000.0001) SETDIAG: Allocate 23 x  1 Levels for Diagnostic #   732 TRAC32
(PID.TID 0000.0001) SETDIAG: Allocate 23 x  1 Levels for Diagnostic #   747 TRAC33
(PID.TID 0000.0001) SETDIAG: Allocate 23 x  1 Levels for Diagnostic #   762 TRAC34
(PID.TID 0000.0001) SETDIAG: Allocate 23 x  1 Levels for Diagnostic #   777 TRAC35
(PID.TID 0000.0001) SETDIAG: Allocate 23 x  1 Levels for Diagnostic #   792 TRAC36
(PID.TID 0000.0001) SETDIAG: Allocate 23 x  1 Levels for Diagnostic #  1020 PAR
(PID.TID 0000.0001) SETDIAG: Allocate 23 x  1 Levels for Diagnostic #   810 PP
(PID.TID 0000.0001) SETDIAG: Allocate 23 x  1 Levels for Diagnostic #   811 Nfix
(PID.TID 0000.0001) SETDIAG: Allocate 23 x  1 Levels for Diagnostic #   812 Denit
(PID.TID 0000.0001) SETDIAG: Allocate 23 x  1 Levels for Diagnostic #  1143 pH
(PID.TID 0000.0001) SETDIAG: Allocate 23 x  1 Levels for Diagnostic #  1144 pCO2
(PID.TID 0000.0001) SETDIAG: Allocate 23 x  1 Levels for Diagnostic #  1108 PC0001
(PID.TID 0000.0001) SETDIAG: Allocate 23 x  1 Levels for Diagnostic #   814 PChl0001
(PID.TID 0000.0001) SETDIAG: Allocate 23 x  1 Levels for Diagnostic #   815 VN0001
(PID.TID 0000.0001) SETDIAG: Allocate 23 x  1 Levels for Diagnostic #   816 MODE0001
(PID.TID 0000.0001) SETDIAG: Allocate 23 x  1 Levels for Diagnostic #   817 Fe_C0001
(PID.TID 0000.0001) SETDIAG: Allocate 23 x  1 Levels for Diagnostic #   818 exQc0001
(PID.TID 0000.0001) SETDIAG: Allocate 23 x  1 Levels for Diagnostic #   819 PCg0001
(PID.TID 0000.0001) SETDIAG: Allocate 23 x  1 Levels for Diagnostic #   820 CChl0001
(PID.TID 0000.0001) SETDIAG: Allocate 23 x  1 Levels for Diagnostic #   821 NChl0001
(PID.TID 0000.0001) SETDIAG: Allocate 23 x  1 Levels for Diagnostic #   822 NPho0001
(PID.TID 0000.0001) SETDIAG: Allocate 23 x  1 Levels for Diagnostic #   823 NSyn0001
(PID.TID 0000.0001) SETDIAG: Allocate 23 x  1 Levels for Diagnostic #   824 NPrn0001
(PID.TID 0000.0001) SETDIAG: Allocate 23 x  1 Levels for Diagnostic #   825 NRNA0001
(PID.TID 0000.0001) SETDIAG: Allocate 23 x  1 Levels for Diagnostic #   826 NDNA0001
(PID.TID 0000.0001) SETDIAG: Allocate 23 x  1 Levels for Diagnostic #   827 NSTO0001
(PID.TID 0000.0001) SETDIAG: Allocate 23 x  1 Levels for Diagnostic #   828 NEXC0001
(PID.TID 0000.0001) SETDIAG: Allocate 23 x  1 Levels for Diagnostic #   829 PRNA0001
(PID.TID 0000.0001) SETDIAG: Allocate 23 x  1 Levels for Diagnostic #   830 PDNA0001
(PID.TID 0000.0001) SETDIAG: Allocate 23 x  1 Levels for Diagnostic #   831 PTHY0001
(PID.TID 0000.0001) SETDIAG: Allocate 23 x  1 Levels for Diagnostic #   832 PCON0001
(PID.TID 0000.0001) SETDIAG: Allocate 23 x  1 Levels for Diagnostic #   833 PSTO0001
(PID.TID 0000.0001) SETDIAG: Allocate 23 x  1 Levels for Diagnostic #   834 PEXC0001
(PID.TID 0000.0001) SETDIAG: Allocate 23 x  1 Levels for Diagnostic #   835 FPHO0001
(PID.TID 0000.0001) SETDIAG: Allocate 23 x  1 Levels for Diagnostic #   836 FSTO0001
(PID.TID 0000.0001) SETDIAG: Allocate 23 x  1 Levels for Diagnostic #   837 FEXC0001
(PID.TID 0000.0001) SETDIAG: Allocate 23 x  1 Levels for Diagnostic #   844 CChl0002
(PID.TID 0000.0001) SETDIAG: Allocate 23 x  1 Levels for Diagnostic #   845 NChl0002
(PID.TID 0000.0001) SETDIAG: Allocate 23 x  1 Levels for Diagnostic #   846 NPho0002
(PID.TID 0000.0001) SETDIAG: Allocate 23 x  1 Levels for Diagnostic #   847 NSyn0002
(PID.TID 0000.0001) SETDIAG: Allocate 23 x  1 Levels for Diagnostic #   848 NPrn0002
(PID.TID 0000.0001) SETDIAG: Allocate 23 x  1 Levels for Diagnostic #   849 NRNA0002
(PID.TID 0000.0001) SETDIAG: Allocate 23 x  1 Levels for Diagnostic #   850 NDNA0002
(PID.TID 0000.0001) SETDIAG: Allocate 23 x  1 Levels for Diagnostic #   851 NSTO0002
(PID.TID 0000.0001) SETDIAG: Allocate 23 x  1 Levels for Diagnostic #   852 NEXC0002
(PID.TID 0000.0001) SETDIAG: Allocate 23 x  1 Levels for Diagnostic #   853 PRNA0002
(PID.TID 0000.0001) SETDIAG: Allocate 23 x  1 Levels for Diagnostic #   854 PDNA0002
(PID.TID 0000.0001) SETDIAG: Allocate 23 x  1 Levels for Diagnostic #   855 PTHY0002
(PID.TID 0000.0001) SETDIAG: Allocate 23 x  1 Levels for Diagnostic #   856 PCON0002
(PID.TID 0000.0001) SETDIAG: Allocate 23 x  1 Levels for Diagnostic #   857 PSTO0002
(PID.TID 0000.0001) SETDIAG: Allocate 23 x  1 Levels for Diagnostic #   858 PEXC0002
(PID.TID 0000.0001) SETDIAG: Allocate 23 x  1 Levels for Diagnostic #   859 FPHO0002
(PID.TID 0000.0001) SETDIAG: Allocate 23 x  1 Levels for Diagnostic #   860 FSTO0002
(PID.TID 0000.0001) SETDIAG: Allocate 23 x  1 Levels for Diagnostic #   861 FEXC0002
(PID.TID 0000.0001) SETDIAG: Allocate 23 x  1 Levels for Diagnostic #  1115 PC0002
(PID.TID 0000.0001) SETDIAG: Allocate 23 x  1 Levels for Diagnostic #   838 PChl0002
(PID.TID 0000.0001) SETDIAG: Allocate 23 x  1 Levels for Diagnostic #   839 VN0002
(PID.TID 0000.0001) SETDIAG: Allocate 23 x  1 Levels for Diagnostic #   840 MODE0002
(PID.TID 0000.0001) SETDIAG: Allocate 23 x  1 Levels for Diagnostic #   841 Fe_C0002
(PID.TID 0000.0001) SETDIAG: Allocate 23 x  1 Levels for Diagnostic #   842 exQc0002
(PID.TID 0000.0001) SETDIAG: Allocate 23 x  1 Levels for Diagnostic #   843 PCg0002
(PID.TID 0000.0001) SETDIAG: Allocate 23 x  1 Levels for Diagnostic #  1172 GC_Tr01
(PID.TID 0000.0001) SETDIAG: Allocate 23 x  1 Levels for Diagnostic #  1173 GC_Tr02
(PID.TID 0000.0001) SETDIAG: Allocate 23 x  1 Levels for Diagnostic #  1174 GC_Tr03
(PID.TID 0000.0001) SETDIAG: Allocate 23 x  1 Levels for Diagnostic #  1175 GC_Tr04
(PID.TID 0000.0001) SETDIAG: Allocate 23 x  1 Levels for Diagnostic #  1176 GC_Tr05
(PID.TID 0000.0001) SETDIAG: Allocate 23 x  1 Levels for Diagnostic #  1177 GC_Tr06
(PID.TID 0000.0001) SETDIAG: Allocate 23 x  1 Levels for Diagnostic #  1178 GC_Tr07
(PID.TID 0000.0001) SETDIAG: Allocate 23 x  1 Levels for Diagnostic #  1179 GC_Tr08
(PID.TID 0000.0001) SETDIAG: Allocate 23 x  1 Levels for Diagnostic #  1180 GC_Tr09
(PID.TID 0000.0001) SETDIAG: Allocate 23 x  1 Levels for Diagnostic #  1181 GC_Tr10
(PID.TID 0000.0001) SETDIAG: Allocate 23 x  1 Levels for Diagnostic #  1182 GC_Tr11
(PID.TID 0000.0001) SETDIAG: Allocate 23 x  1 Levels for Diagnostic #  1183 GC_Tr12
(PID.TID 0000.0001) SETDIAG: Allocate 23 x  1 Levels for Diagnostic #  1184 GC_Tr13
(PID.TID 0000.0001) SETDIAG: Allocate 23 x  1 Levels for Diagnostic #  1185 GC_Tr14
(PID.TID 0000.0001) SETDIAG: Allocate 23 x  1 Levels for Diagnostic #  1186 GC_Tr15
(PID.TID 0000.0001) SETDIAG: Allocate 23 x  1 Levels for Diagnostic #  1187 GC_Tr16
(PID.TID 0000.0001) SETDIAG: Allocate 23 x  1 Levels for Diagnostic #  1188 GC_Tr17
(PID.TID 0000.0001) SETDIAG: Allocate 23 x  1 Levels for Diagnostic #  1189 GC_Tr18
(PID.TID 0000.0001) SETDIAG: Allocate 23 x  1 Levels for Diagnostic #  1190 GC_Tr19
(PID.TID 0000.0001) SETDIAG: Allocate 23 x  1 Levels for Diagnostic #  1191 GC_Tr20
(PID.TID 0000.0001) SETDIAG: Allocate 23 x  1 Levels for Diagnostic #  1192 GC_Tr21
(PID.TID 0000.0001) SETDIAG: Allocate 23 x  1 Levels for Diagnostic #  1193 GC_Tr22
(PID.TID 0000.0001) SETDIAG: Allocate 23 x  1 Levels for Diagnostic #  1194 GC_Tr23
(PID.TID 0000.0001) SETDIAG: Allocate 23 x  1 Levels for Diagnostic #  1195 GC_Tr24
(PID.TID 0000.0001) SETDIAG: Allocate 23 x  1 Levels for Diagnostic #  1196 GC_Tr25
(PID.TID 0000.0001) SETDIAG: Allocate 23 x  1 Levels for Diagnostic #  1197 GC_Tr26
(PID.TID 0000.0001) SETDIAG: Allocate 23 x  1 Levels for Diagnostic #  1198 GC_Tr27
(PID.TID 0000.0001) SETDIAG: Allocate 23 x  1 Levels for Diagnostic #  1199 GC_Tr28
(PID.TID 0000.0001) SETDIAG: Allocate 23 x  1 Levels for Diagnostic #  1200 GC_Tr29
(PID.TID 0000.0001) SETDIAG: Allocate 23 x  1 Levels for Diagnostic #  1201 GC_Tr30
(PID.TID 0000.0001) SETDIAG: Allocate 23 x  1 Levels for Diagnostic #  1202 GC_Tr31
(PID.TID 0000.0001) SETDIAG: Allocate 23 x  1 Levels for Diagnostic #  1203 GC_Tr32
(PID.TID 0000.0001) SETDIAG: Allocate 23 x  1 Levels for Diagnostic #  1204 GC_Tr33
(PID.TID 0000.0001) SETDIAG: Allocate 23 x  1 Levels for Diagnostic #  1205 GC_Tr34
(PID.TID 0000.0001) SETDIAG: Allocate 23 x  1 Levels for Diagnostic #  1206 GC_Tr35
(PID.TID 0000.0001) SETDIAG: Allocate 23 x  1 Levels for Diagnostic #  1207 GC_Tr36
(PID.TID 0000.0001) SETDIAG: Allocate 23 x  1 Levels for Diagnostic #   864 a001
(PID.TID 0000.0001) SETDIAG: Allocate 23 x  1 Levels for Diagnostic #   876 a002
(PID.TID 0000.0001) SETDIAG: Allocate 23 x  1 Levels for Diagnostic #   888 a003
(PID.TID 0000.0001) SETDIAG: Allocate 23 x  1 Levels for Diagnostic #   900 a004
(PID.TID 0000.0001) SETDIAG: Allocate 23 x  1 Levels for Diagnostic #   912 a005
(PID.TID 0000.0001) SETDIAG: Allocate 23 x  1 Levels for Diagnostic #   924 a006
(PID.TID 0000.0001) SETDIAG: Allocate 23 x  1 Levels for Diagnostic #   936 a007
(PID.TID 0000.0001) SETDIAG: Allocate 23 x  1 Levels for Diagnostic #   948 a008
(PID.TID 0000.0001) SETDIAG: Allocate 23 x  1 Levels for Diagnostic #   960 a009
(PID.TID 0000.0001) SETDIAG: Allocate 23 x  1 Levels for Diagnostic #   972 a010
(PID.TID 0000.0001) SETDIAG: Allocate 23 x  1 Levels for Diagnostic #   984 a011
(PID.TID 0000.0001) SETDIAG: Allocate 23 x  1 Levels for Diagnostic #   996 a012
(PID.TID 0000.0001) SETDIAG: Allocate 23 x  1 Levels for Diagnostic #  1008 a013
(PID.TID 0000.0001) SETDIAG: Allocate 23 x  1 Levels for Diagnostic #   865 bt001
(PID.TID 0000.0001) SETDIAG: Allocate 23 x  1 Levels for Diagnostic #   877 bt002
(PID.TID 0000.0001) SETDIAG: Allocate 23 x  1 Levels for Diagnostic #   889 bt003
(PID.TID 0000.0001) SETDIAG: Allocate 23 x  1 Levels for Diagnostic #   901 bt004
(PID.TID 0000.0001) SETDIAG: Allocate 23 x  1 Levels for Diagnostic #   913 bt005
(PID.TID 0000.0001) SETDIAG: Allocate 23 x  1 Levels for Diagnostic #   925 bt006
(PID.TID 0000.0001) SETDIAG: Allocate 23 x  1 Levels for Diagnostic #   937 bt007
(PID.TID 0000.0001) SETDIAG: Allocate 23 x  1 Levels for Diagnostic #   949 bt008
(PID.TID 0000.0001) SETDIAG: Allocate 23 x  1 Levels for Diagnostic #   961 bt009
(PID.TID 0000.0001) SETDIAG: Allocate 23 x  1 Levels for Diagnostic #   973 bt010
(PID.TID 0000.0001) SETDIAG: Allocate 23 x  1 Levels for Diagnostic #   985 bt011
(PID.TID 0000.0001) SETDIAG: Allocate 23 x  1 Levels for Diagnostic #   997 bt012
(PID.TID 0000.0001) SETDIAG: Allocate 23 x  1 Levels for Diagnostic #  1009 bt013
(PID.TID 0000.0001) SETDIAG: Allocate 23 x  1 Levels for Diagnostic #   866 bb001
(PID.TID 0000.0001) SETDIAG: Allocate 23 x  1 Levels for Diagnostic #   878 bb002
(PID.TID 0000.0001) SETDIAG: Allocate 23 x  1 Levels for Diagnostic #   890 bb003
(PID.TID 0000.0001) SETDIAG: Allocate 23 x  1 Levels for Diagnostic #   902 bb004
(PID.TID 0000.0001) SETDIAG: Allocate 23 x  1 Levels for Diagnostic #   914 bb005
(PID.TID 0000.0001) SETDIAG: Allocate 23 x  1 Levels for Diagnostic #   938 bb007
(PID.TID 0000.0001) SETDIAG: Allocate 23 x  1 Levels for Diagnostic #   950 bb008
(PID.TID 0000.0001) SETDIAG: Allocate 23 x  1 Levels for Diagnostic #   962 bb009
(PID.TID 0000.0001) SETDIAG: Allocate 23 x  1 Levels for Diagnostic #   974 bb010
(PID.TID 0000.0001) SETDIAG: Allocate 23 x  1 Levels for Diagnostic #   986 bb011
(PID.TID 0000.0001) SETDIAG: Allocate 23 x  1 Levels for Diagnostic #   998 bb012
(PID.TID 0000.0001) SETDIAG: Allocate 23 x  1 Levels for Diagnostic #  1010 bb013
(PID.TID 0000.0001) SETDIAG: Allocate 23 x  1 Levels for Diagnostic #   873 aCDOM001
(PID.TID 0000.0001) SETDIAG: Allocate 23 x  1 Levels for Diagnostic #   885 aCDOM002
(PID.TID 0000.0001) SETDIAG: Allocate 23 x  1 Levels for Diagnostic #   897 aCDOM003
(PID.TID 0000.0001) SETDIAG: Allocate 23 x  1 Levels for Diagnostic #   909 aCDOM004
(PID.TID 0000.0001) SETDIAG: Allocate 23 x  1 Levels for Diagnostic #   921 aCDOM005
(PID.TID 0000.0001) SETDIAG: Allocate 23 x  1 Levels for Diagnostic #   933 aCDOM006
(PID.TID 0000.0001) SETDIAG: Allocate 23 x  1 Levels for Diagnostic #   945 aCDOM007
(PID.TID 0000.0001) SETDIAG: Allocate 23 x  1 Levels for Diagnostic #   957 aCDOM008
(PID.TID 0000.0001) SETDIAG: Allocate 23 x  1 Levels for Diagnostic #   969 aCDOM009
(PID.TID 0000.0001) SETDIAG: Allocate 23 x  1 Levels for Diagnostic #   981 aCDOM010
(PID.TID 0000.0001) SETDIAG: Allocate 23 x  1 Levels for Diagnostic #   993 aCDOM011
(PID.TID 0000.0001) SETDIAG: Allocate 23 x  1 Levels for Diagnostic #  1005 aCDOM012
(PID.TID 0000.0001) SETDIAG: Allocate 23 x  1 Levels for Diagnostic #  1017 aCDOM013
(PID.TID 0000.0001) SETDIAG: Allocate 23 x  1 Levels for Diagnostic #   926 bb006
(PID.TID 0000.0001) SETDIAG: Allocate 23 x  1 Levels for Diagnostic #   189 Ed001
(PID.TID 0000.0001) SETDIAG: Allocate 23 x  1 Levels for Diagnostic #   195 Ed002
(PID.TID 0000.0001) SETDIAG: Allocate 23 x  1 Levels for Diagnostic #   201 Ed003
(PID.TID 0000.0001) SETDIAG: Allocate 23 x  1 Levels for Diagnostic #   207 Ed004
(PID.TID 0000.0001) SETDIAG: Allocate 23 x  1 Levels for Diagnostic #   213 Ed005
(PID.TID 0000.0001) SETDIAG: Allocate 23 x  1 Levels for Diagnostic #   219 Ed006
(PID.TID 0000.0001) SETDIAG: Allocate 23 x  1 Levels for Diagnostic #   225 Ed007
(PID.TID 0000.0001) SETDIAG: Allocate 23 x  1 Levels for Diagnostic #   231 Ed008
(PID.TID 0000.0001) SETDIAG: Allocate 23 x  1 Levels for Diagnostic #   237 Ed009
(PID.TID 0000.0001) SETDIAG: Allocate 23 x  1 Levels for Diagnostic #   243 Ed010
(PID.TID 0000.0001) SETDIAG: Allocate 23 x  1 Levels for Diagnostic #   249 Ed011
(PID.TID 0000.0001) SETDIAG: Allocate 23 x  1 Levels for Diagnostic #   255 Ed012
(PID.TID 0000.0001) SETDIAG: Allocate 23 x  1 Levels for Diagnostic #   261 Ed013
(PID.TID 0000.0001) SETDIAG: Allocate 23 x  1 Levels for Diagnostic #   190 Es001
(PID.TID 0000.0001) SETDIAG: Allocate 23 x  1 Levels for Diagnostic #   196 Es002
(PID.TID 0000.0001) SETDIAG: Allocate 23 x  1 Levels for Diagnostic #   202 Es003
(PID.TID 0000.0001) SETDIAG: Allocate 23 x  1 Levels for Diagnostic #   208 Es004
(PID.TID 0000.0001) SETDIAG: Allocate 23 x  1 Levels for Diagnostic #   214 Es005
(PID.TID 0000.0001) SETDIAG: Allocate 23 x  1 Levels for Diagnostic #   220 Es006
(PID.TID 0000.0001) SETDIAG: Allocate 23 x  1 Levels for Diagnostic #   226 Es007
(PID.TID 0000.0001) SETDIAG: Allocate 23 x  1 Levels for Diagnostic #   232 Es008
(PID.TID 0000.0001) SETDIAG: Allocate 23 x  1 Levels for Diagnostic #   238 Es009
(PID.TID 0000.0001) SETDIAG: Allocate 23 x  1 Levels for Diagnostic #   244 Es010
(PID.TID 0000.0001) SETDIAG: Allocate 23 x  1 Levels for Diagnostic #   250 Es011
(PID.TID 0000.0001) SETDIAG: Allocate 23 x  1 Levels for Diagnostic #   256 Es012
(PID.TID 0000.0001) SETDIAG: Allocate 23 x  1 Levels for Diagnostic #   262 Es013
(PID.TID 0000.0001) SETDIAG: Allocate 23 x  1 Levels for Diagnostic #   191 Eu001
(PID.TID 0000.0001) SETDIAG: Allocate 23 x  1 Levels for Diagnostic #   197 Eu002
(PID.TID 0000.0001) SETDIAG: Allocate 23 x  1 Levels for Diagnostic #   203 Eu003
(PID.TID 0000.0001) SETDIAG: Allocate 23 x  1 Levels for Diagnostic #   209 Eu004
(PID.TID 0000.0001) SETDIAG: Allocate 23 x  1 Levels for Diagnostic #   215 Eu005
(PID.TID 0000.0001) SETDIAG: Allocate 23 x  1 Levels for Diagnostic #   221 Eu006
(PID.TID 0000.0001) SETDIAG: Allocate 23 x  1 Levels for Diagnostic #   227 Eu007
(PID.TID 0000.0001) SETDIAG: Allocate 23 x  1 Levels for Diagnostic #   233 Eu008
(PID.TID 0000.0001) SETDIAG: Allocate 23 x  1 Levels for Diagnostic #   239 Eu009
(PID.TID 0000.0001) SETDIAG: Allocate 23 x  1 Levels for Diagnostic #   245 Eu010
(PID.TID 0000.0001) SETDIAG: Allocate 23 x  1 Levels for Diagnostic #   251 Eu011
(PID.TID 0000.0001) SETDIAG: Allocate 23 x  1 Levels for Diagnostic #   257 Eu012
(PID.TID 0000.0001) SETDIAG: Allocate 23 x  1 Levels for Diagnostic #   263 Eu013
(PID.TID 0000.0001) SETDIAG: Allocate 23 x  1 Levels for Diagnostic #   862 PAR001
(PID.TID 0000.0001) SETDIAG: Allocate 23 x  1 Levels for Diagnostic #   874 PAR002
(PID.TID 0000.0001) SETDIAG: Allocate 23 x  1 Levels for Diagnostic #   886 PAR003
(PID.TID 0000.0001) SETDIAG: Allocate 23 x  1 Levels for Diagnostic #   898 PAR004
(PID.TID 0000.0001) SETDIAG: Allocate 23 x  1 Levels for Diagnostic #   910 PAR005
(PID.TID 0000.0001) SETDIAG: Allocate 23 x  1 Levels for Diagnostic #   922 PAR006
(PID.TID 0000.0001) SETDIAG: Allocate 23 x  1 Levels for Diagnostic #   934 PAR007
(PID.TID 0000.0001) SETDIAG: Allocate 23 x  1 Levels for Diagnostic #   946 PAR008
(PID.TID 0000.0001) SETDIAG: Allocate 23 x  1 Levels for Diagnostic #   958 PAR009
(PID.TID 0000.0001) SETDIAG: Allocate 23 x  1 Levels for Diagnostic #   970 PAR010
(PID.TID 0000.0001) SETDIAG: Allocate 23 x  1 Levels for Diagnostic #   982 PAR011
(PID.TID 0000.0001) SETDIAG: Allocate 23 x  1 Levels for Diagnostic #   994 PAR012
(PID.TID 0000.0001) SETDIAG: Allocate 23 x  1 Levels for Diagnostic #  1006 PAR013
(PID.TID 0000.0001) SETDIAG: Allocate  1 x  1 Levels for Diagnostic #  1150 fluxCO2
(PID.TID 0000.0001) SETDIAG: Allocate  1 x  1 Levels for Diagnostic #  1154 gDICsurf
(PID.TID 0000.0001) SETDIAG: Allocate  1 x  1 Levels for Diagnostic #  1155 gALKsurf
(PID.TID 0000.0001) SETDIAG: Allocate  1 x  1 Levels for Diagnostic #  1156 gO2surf
(PID.TID 0000.0001)   space allocated for all diagnostics:    5340 levels
(PID.TID 0000.0001) DIAGNOSTICS_SET_POINTERS: Set levels for Outp.Stream: 3d
(PID.TID 0000.0001)  Levels:       1.   2.   3.   4.   5.   6.   7.   8.   9.  10.  11.  12.  13.  14.  15.  16.  17.  18.  19.  20.
(PID.TID 0000.0001)  Levels:      21.  22.  23.
(PID.TID 0000.0001) DIAGNOSTICS_SET_POINTERS: Set levels for Outp.Stream: GC
(PID.TID 0000.0001)  Levels:       1.   2.   3.   4.   5.   6.   7.   8.   9.  10.  11.  12.  13.  14.  15.  16.  17.  18.  19.  20.
(PID.TID 0000.0001)  Levels:      21.  22.  23.
(PID.TID 0000.0001) DIAGNOSTICS_SET_POINTERS: Set levels for Outp.Stream: iops
(PID.TID 0000.0001)  Levels:       1.   2.   3.   4.   5.   6.   7.   8.   9.  10.  11.  12.  13.  14.  15.  16.  17.  18.  19.  20.
(PID.TID 0000.0001)  Levels:      21.  22.  23.
(PID.TID 0000.0001) DIAGNOSTICS_SET_POINTERS: Set levels for Outp.Stream: par
(PID.TID 0000.0001)  Levels:       1.   2.   3.   4.   5.   6.   7.   8.   9.  10.  11.  12.  13.  14.  15.  16.  17.  18.  19.  20.
(PID.TID 0000.0001)  Levels:      21.  22.  23.
(PID.TID 0000.0001) DIAGNOSTICS_SET_POINTERS: Set levels for Outp.Stream: 2d
(PID.TID 0000.0001)  Levels:       1.
(PID.TID 0000.0001) DIAGNOSTICS_SET_POINTERS: done
(PID.TID 0000.0001) ------------------------------------------------------------
(PID.TID 0000.0001) DIAGSTATS_SET_REGIONS: define no region
(PID.TID 0000.0001) ------------------------------------------------------------
(PID.TID 0000.0001) SETDIAG: Allocate 23 Levels for Stats-Diag #   810 PP
(PID.TID 0000.0001) SETDIAG: Allocate 23 Levels for Stats-Diag #   811 Nfix
(PID.TID 0000.0001) SETDIAG: Allocate 23 Levels for Stats-Diag #   812 Denit
(PID.TID 0000.0001)   space allocated for all stats-diags:      69 levels
(PID.TID 0000.0001) DIAGSTATS_SET_POINTERS: done
(PID.TID 0000.0001) ------------------------------------------------------------
(PID.TID 0000.0001) DIAGSTATS_INI_IO: open file: statsPP.0000000000.txt , unit=     9
(PID.TID 0000.0001) DIAGSTATS_INI_IO: open file: statsNfix.0000000000.txt , unit=    10
(PID.TID 0000.0001) DIAGSTATS_INI_IO: open file: statsDenit.0000000000.txt , unit=    16
(PID.TID 0000.0001) %MON fCori_max                    =   1.4340032469287E-04
(PID.TID 0000.0001) %MON fCori_min                    =  -1.4340032469287E-04
(PID.TID 0000.0001) %MON fCori_mean                   =  -2.3852447794681E-20
(PID.TID 0000.0001) %MON fCori_sd                     =   9.6604363594752E-05
(PID.TID 0000.0001) %MON fCoriG_max                   =   1.4316293338671E-04
(PID.TID 0000.0001) %MON fCoriG_min                   =  -1.4362679550910E-04
(PID.TID 0000.0001) %MON fCoriG_mean                  =  -8.9766747193168E-07
(PID.TID 0000.0001) %MON fCoriG_sd                    =   9.6601219725587E-05
(PID.TID 0000.0001) %MON fCoriCos_max                 =   1.4583691710542E-04
(PID.TID 0000.0001) %MON fCoriCos_min                 =   2.6577679221448E-05
(PID.TID 0000.0001) %MON fCoriCos_mean                =   1.0286642071176E-04
(PID.TID 0000.0001) %MON fCoriCos_sd                  =   3.6825569638793E-05
(PID.TID 0000.0001) INI_CG2D: CG2D normalisation factor =  5.6948601716296077E-05
(PID.TID 0000.0001) 
(PID.TID 0000.0001) // =======================================================
(PID.TID 0000.0001) // Model configuration
(PID.TID 0000.0001) // =======================================================
(PID.TID 0000.0001) //
(PID.TID 0000.0001) // "Physical" paramters ( PARM01 in namelist )
(PID.TID 0000.0001) //
(PID.TID 0000.0001) buoyancyRelation = /* Type of relation to get Buoyancy */
(PID.TID 0000.0001)               'OCEANIC'
(PID.TID 0000.0001)     ;
(PID.TID 0000.0001) fluidIsAir   =  /* fluid major constituent is Air */
(PID.TID 0000.0001)                   F
(PID.TID 0000.0001)     ;
(PID.TID 0000.0001) fluidIsWater =  /* fluid major constituent is Water */
(PID.TID 0000.0001)                   T
(PID.TID 0000.0001)     ;
(PID.TID 0000.0001) usingPCoords =  /* use p (or p*) vertical coordinate */
(PID.TID 0000.0001)                   F
(PID.TID 0000.0001)     ;
(PID.TID 0000.0001) usingZCoords =  /* use z (or z*) vertical coordinate */
(PID.TID 0000.0001)                   T
(PID.TID 0000.0001)     ;
(PID.TID 0000.0001) tRef =   /* Reference temperature profile ( oC or K ) */
(PID.TID 0000.0001)                 2.400000000000000E+01,      /* K =  1 */
(PID.TID 0000.0001)                 2.300000000000000E+01,      /* K =  2 */
(PID.TID 0000.0001)                 2.200000000000000E+01,      /* K =  3 */
(PID.TID 0000.0001)                 2.100000000000000E+01,      /* K =  4 */
(PID.TID 0000.0001)                 2.000000000000000E+01,      /* K =  5 */
(PID.TID 0000.0001)                 1.900000000000000E+01,      /* K =  6 */
(PID.TID 0000.0001)                 1.800000000000000E+01,      /* K =  7 */
(PID.TID 0000.0001)                 1.700000000000000E+01,      /* K =  8 */
(PID.TID 0000.0001)                 1.600000000000000E+01,      /* K =  9 */
(PID.TID 0000.0001)                 1.500000000000000E+01,      /* K = 10 */
(PID.TID 0000.0001)                 1.400000000000000E+01,      /* K = 11 */
(PID.TID 0000.0001)                 1.300000000000000E+01,      /* K = 12 */
(PID.TID 0000.0001)                 1.200000000000000E+01,      /* K = 13 */
(PID.TID 0000.0001)                 1.100000000000000E+01,      /* K = 14 */
(PID.TID 0000.0001)                 1.000000000000000E+01,      /* K = 15 */
(PID.TID 0000.0001)                 9.000000000000000E+00,      /* K = 16 */
(PID.TID 0000.0001)                 8.000000000000000E+00,      /* K = 17 */
(PID.TID 0000.0001)                 7.000000000000000E+00,      /* K = 18 */
(PID.TID 0000.0001)                 6.000000000000000E+00,      /* K = 19 */
(PID.TID 0000.0001)                 5.000000000000000E+00,      /* K = 20 */
(PID.TID 0000.0001)                 4.000000000000000E+00,      /* K = 21 */
(PID.TID 0000.0001)                 3.000000000000000E+00,      /* K = 22 */
(PID.TID 0000.0001)                 2.000000000000000E+00       /* K = 23 */
(PID.TID 0000.0001)     ;
(PID.TID 0000.0001) sRef =   /* Reference salinity profile ( g/kg ) */
(PID.TID 0000.0001)                 3.465000000000000E+01,      /* K =  1 */
(PID.TID 0000.0001)                 3.475000000000000E+01,      /* K =  2 */
(PID.TID 0000.0001)                 3.482000000000000E+01,      /* K =  3 */
(PID.TID 0000.0001)                 3.487000000000000E+01,      /* K =  4 */
(PID.TID 0000.0001)     2 @  3.490000000000000E+01,             /* K =  5:  6 */
(PID.TID 0000.0001)                 3.486000000000000E+01,      /* K =  7 */
(PID.TID 0000.0001)                 3.478000000000000E+01,      /* K =  8 */
(PID.TID 0000.0001)                 3.469000000000000E+01,      /* K =  9 */
(PID.TID 0000.0001)                 3.460000000000000E+01,      /* K = 10 */
(PID.TID 0000.0001)                 3.458000000000000E+01,      /* K = 11 */
(PID.TID 0000.0001)                 3.462000000000000E+01,      /* K = 12 */
(PID.TID 0000.0001)                 3.468000000000000E+01,      /* K = 13 */
(PID.TID 0000.0001)                 3.472000000000000E+01,      /* K = 14 */
(PID.TID 0000.0001)                 3.473000000000000E+01,      /* K = 15 */
(PID.TID 0000.0001)                 3.474000000000000E+01,      /* K = 16 */
(PID.TID 0000.0001)     2 @  3.473000000000000E+01,             /* K = 17: 18 */
(PID.TID 0000.0001)     2 @  3.472000000000000E+01,             /* K = 19: 20 */
(PID.TID 0000.0001)                 3.471000000000000E+01,      /* K = 21 */
(PID.TID 0000.0001)                 3.470000000000000E+01,      /* K = 22 */
(PID.TID 0000.0001)                 3.469000000000000E+01       /* K = 23 */
(PID.TID 0000.0001)     ;
(PID.TID 0000.0001) rhoRef =   /* Density vertical profile from (Ref,sRef)( kg/m^3 ) */
(PID.TID 0000.0001)    23 @  9.998000000000000E+02              /* K =  1: 23 */
(PID.TID 0000.0001)     ;
(PID.TID 0000.0001) dBdrRef = /* Vertical grad. of reference buoyancy [(m/s/r)^2] */
(PID.TID 0000.0001)    23 @  0.000000000000000E+00              /* K =  1: 23 */
(PID.TID 0000.0001)     ;
(PID.TID 0000.0001) useStrainTensionVisc= /* Use StrainTension Form of Viscous Operator */
(PID.TID 0000.0001)                   F
(PID.TID 0000.0001)     ;
(PID.TID 0000.0001) useVariableVisc = /* Use variable horizontal viscosity */
(PID.TID 0000.0001)                   F
(PID.TID 0000.0001)     ;
(PID.TID 0000.0001) useHarmonicVisc = /* Use harmonic horizontal viscosity */
(PID.TID 0000.0001)                   F
(PID.TID 0000.0001)     ;
(PID.TID 0000.0001) useBiharmonicVisc= /* Use biharmonic horiz.  viscosity */
(PID.TID 0000.0001)                   F
(PID.TID 0000.0001)     ;
(PID.TID 0000.0001) useSmag3D = /* Use isotropic 3-D Smagorinsky viscosity */
(PID.TID 0000.0001)                   F
(PID.TID 0000.0001)     ;
(PID.TID 0000.0001) viscAh  =   /* Lateral harmonic viscosity ( m^2/s ) */
(PID.TID 0000.0001)                 1.000000000000000E+04
(PID.TID 0000.0001)     ;
(PID.TID 0000.0001) viscA4  =   /* Lateral biharmonic viscosity ( m^4/s ) */
(PID.TID 0000.0001)                 0.000000000000000E+00
(PID.TID 0000.0001)     ;
(PID.TID 0000.0001) no_slip_sides =  /* Viscous BCs: No-slip sides */
(PID.TID 0000.0001)                   F
(PID.TID 0000.0001)     ;
(PID.TID 0000.0001) sideDragFactor = /* side-drag scaling factor (non-dim) */
(PID.TID 0000.0001)                 2.000000000000000E+00
(PID.TID 0000.0001)     ;
(PID.TID 0000.0001) viscArNr = /* vertical profile of vertical viscosity ( m^2/s )*/
(PID.TID 0000.0001)    23 @  1.000000000000000E-03              /* K =  1: 23 */
(PID.TID 0000.0001)     ;
(PID.TID 0000.0001) no_slip_bottom =  /* Viscous BCs: No-slip bottom */
(PID.TID 0000.0001)                   T
(PID.TID 0000.0001)     ;
(PID.TID 0000.0001) bottomVisc_pCell = /* Partial-cell in bottom Visc. BC */
(PID.TID 0000.0001)                   F
(PID.TID 0000.0001)     ;
(PID.TID 0000.0001) bottomDragLinear = /* linear bottom-drag coefficient ( m/s ) */
(PID.TID 0000.0001)                 0.000000000000000E+00
(PID.TID 0000.0001)     ;
(PID.TID 0000.0001) bottomDragQuadratic = /* quadratic bottom-drag coefficient (-) */
(PID.TID 0000.0001)                 0.000000000000000E+00
(PID.TID 0000.0001)     ;
(PID.TID 0000.0001) selectBotDragQuadr = /* select quadratic bottom drag options */
(PID.TID 0000.0001)                      -1
(PID.TID 0000.0001)     ;
(PID.TID 0000.0001) diffKhT =   /* Laplacian diffusion of heat laterally ( m^2/s ) */
(PID.TID 0000.0001)                 1.000000000000000E+02
(PID.TID 0000.0001)     ;
(PID.TID 0000.0001) diffK4T =   /* Biharmonic diffusion of heat laterally ( m^4/s ) */
(PID.TID 0000.0001)                 0.000000000000000E+00
(PID.TID 0000.0001)     ;
(PID.TID 0000.0001) diffKhS =   /* Laplacian diffusion of salt laterally ( m^2/s ) */
(PID.TID 0000.0001)                 1.000000000000000E+02
(PID.TID 0000.0001)     ;
(PID.TID 0000.0001) diffK4S =   /* Biharmonic diffusion of salt laterally ( m^4/s ) */
(PID.TID 0000.0001)                 0.000000000000000E+00
(PID.TID 0000.0001)     ;
(PID.TID 0000.0001) diffKrNrT = /* vertical profile of vertical diffusion of Temp ( m^2/s )*/
(PID.TID 0000.0001)    23 @  1.000000000000000E-05              /* K =  1: 23 */
(PID.TID 0000.0001)     ;
(PID.TID 0000.0001) diffKrNrS = /* vertical profile of vertical diffusion of Salt ( m^2/s )*/
(PID.TID 0000.0001)    23 @  1.000000000000000E-05              /* K =  1: 23 */
(PID.TID 0000.0001)     ;
(PID.TID 0000.0001) diffKrBL79surf = /* Surface diffusion for Bryan and Lewis 79 ( m^2/s ) */
(PID.TID 0000.0001)                 0.000000000000000E+00
(PID.TID 0000.0001)     ;
(PID.TID 0000.0001) diffKrBL79deep = /* Deep diffusion for Bryan and Lewis 1979 ( m^2/s ) */
(PID.TID 0000.0001)                 0.000000000000000E+00
(PID.TID 0000.0001)     ;
(PID.TID 0000.0001) diffKrBL79scl = /* Depth scale for Bryan and Lewis 1979 ( m ) */
(PID.TID 0000.0001)                 2.000000000000000E+02
(PID.TID 0000.0001)     ;
(PID.TID 0000.0001) diffKrBL79Ho = /* Turning depth for Bryan and Lewis 1979 ( m ) */
(PID.TID 0000.0001)                -2.000000000000000E+03
(PID.TID 0000.0001)     ;
(PID.TID 0000.0001) ivdc_kappa = /* Implicit Vertical Diffusivity for Convection ( m^2/s) */
(PID.TID 0000.0001)                 0.000000000000000E+00
(PID.TID 0000.0001)     ;
(PID.TID 0000.0001) hMixCriteria=  /* Criteria for mixed-layer diagnostic */
(PID.TID 0000.0001)                -8.000000000000000E-01
(PID.TID 0000.0001)     ;
(PID.TID 0000.0001) dRhoSmall =  /* Parameter for mixed-layer diagnostic */
(PID.TID 0000.0001)                 1.000000000000000E-06
(PID.TID 0000.0001)     ;
(PID.TID 0000.0001) hMixSmooth=  /* Smoothing parameter for mixed-layer diagnostic */
(PID.TID 0000.0001)                 0.000000000000000E+00
(PID.TID 0000.0001)     ;
(PID.TID 0000.0001) eosType =  /* Type of Equation of State */
(PID.TID 0000.0001)               'POLY3 '
(PID.TID 0000.0001)     ;
(PID.TID 0000.0001) Polynomial EQS parameters ( from POLY3.COEFFS ):
(PID.TID 0000.0001)   1  13.499  32.600  24.480  -0.201   0.771  -0.005  -0.002   0.000   0.000   0.000   0.000   0.000
(PID.TID 0000.0001)   2  13.498  32.600  24.525  -0.202   0.771  -0.005  -0.002   0.000   0.000   0.000   0.000   0.000
(PID.TID 0000.0001)   3  13.496  32.600  24.581  -0.202   0.771  -0.005  -0.002   0.000   0.000   0.000   0.000   0.000
(PID.TID 0000.0001)   4  13.494  32.600  24.660  -0.202   0.771  -0.005  -0.002   0.000   0.000   0.000   0.000   0.000
(PID.TID 0000.0001)   5  13.491  32.600  24.750  -0.203   0.771  -0.005  -0.002   0.000   0.000   0.000   0.000   0.000
(PID.TID 0000.0001)   6  13.488  32.600  24.851  -0.203   0.770  -0.005  -0.002   0.000   0.000   0.000   0.000   0.000
(PID.TID 0000.0001)   7  13.484  32.600  24.985  -0.204   0.770  -0.005  -0.002   0.000   0.000   0.000   0.000   0.000
(PID.TID 0000.0001)   8  13.478  32.600  25.176  -0.204   0.770  -0.005  -0.002   0.000   0.000   0.000   0.000   0.000
(PID.TID 0000.0001)   9  13.469  32.600  25.456  -0.205   0.769  -0.005  -0.002   0.000   0.000   0.000   0.000   0.000
(PID.TID 0000.0001)  10   8.467  35.150  28.748  -0.163   0.781  -0.005  -0.002   0.001   0.000   0.000   0.000   0.000
(PID.TID 0000.0001)  11   8.454  35.150  29.315  -0.166   0.780  -0.005  -0.002   0.001   0.000   0.000   0.000   0.000
(PID.TID 0000.0001)  12   5.946  34.900  30.300  -0.143   0.785  -0.006  -0.002   0.001   0.000   0.000   0.000   0.000
(PID.TID 0000.0001)  13   4.433  34.900  31.591  -0.132   0.786  -0.006  -0.003   0.000   0.000   0.000   0.000   0.000
(PID.TID 0000.0001)  14   3.909  34.750  32.966  -0.134   0.785  -0.006  -0.003   0.000   0.000   0.000   0.000   0.000
(PID.TID 0000.0001)  15   1.899  34.800  35.002  -0.121   0.787  -0.006  -0.003  -0.000   0.000   0.000   0.000   0.000
(PID.TID 0000.0001)  16   1.372  34.750  36.991  -0.127   0.785  -0.006  -0.003  -0.001   0.000   0.000   0.000   0.000
(PID.TID 0000.0001)  17   1.332  34.800  39.171  -0.140   0.782  -0.006  -0.003  -0.002   0.000   0.000   0.000   0.000
(PID.TID 0000.0001)  18   0.797  34.800  41.472  -0.147   0.779  -0.006  -0.003  -0.001   0.000   0.000   0.000  -0.000
(PID.TID 0000.0001)  19   0.749  34.800  43.682  -0.160   0.775  -0.005  -0.002  -0.002   0.000   0.000   0.000  -0.000
(PID.TID 0000.0001)  20   0.214  34.750  45.912  -0.168   0.772  -0.005  -0.002  -0.002   0.000   0.000   0.000   0.000
(PID.TID 0000.0001)  21   0.160  34.750  48.080  -0.181   0.768  -0.005  -0.002  -0.003   0.000   0.000  -0.000  -0.000
(PID.TID 0000.0001)  22   0.584  34.750  50.131  -0.197   0.763  -0.005  -0.002  -0.001   0.000   0.000   0.000   0.000
(PID.TID 0000.0001)  23   0.522  34.750  52.248  -0.209   0.760  -0.005  -0.002  -0.002   0.000   0.000   0.000  -0.000
(PID.TID 0000.0001)     ;
(PID.TID 0000.0001) selectP_inEOS_Zc = /* select pressure to use in EOS (0,1,2,3) */
(PID.TID 0000.0001)                       0
(PID.TID 0000.0001)     0= -g*rhoConst*z ; 1= pRef (from tRef,sRef); 2= Hyd P ; 3= Hyd+NH P
(PID.TID 0000.0001)     ;
(PID.TID 0000.0001) surf_pRef = /* Surface reference pressure ( Pa ) */
(PID.TID 0000.0001)                 1.013250000000000E+05
(PID.TID 0000.0001)     ;
(PID.TID 0000.0001) HeatCapacity_Cp =  /* Specific heat capacity ( J/kg/K ) */
(PID.TID 0000.0001)                 3.994000000000000E+03
(PID.TID 0000.0001)     ;
(PID.TID 0000.0001) celsius2K = /* 0 degree Celsius converted to Kelvin ( K ) */
(PID.TID 0000.0001)                 2.731500000000000E+02
(PID.TID 0000.0001)     ;
(PID.TID 0000.0001) rhoConst  = /* Reference density (Boussinesq)  ( kg/m^3 ) */
(PID.TID 0000.0001)                 9.998000000000000E+02
(PID.TID 0000.0001)     ;
(PID.TID 0000.0001) rhoFacC = /* normalized Reference density @ cell-Center (-) */
(PID.TID 0000.0001)    23 @  1.000000000000000E+00              /* K =  1: 23 */
(PID.TID 0000.0001)     ;
(PID.TID 0000.0001) rhoFacF = /* normalized Reference density @ W-Interface (-) */
(PID.TID 0000.0001)    24 @  1.000000000000000E+00              /* K =  1: 24 */
(PID.TID 0000.0001)     ;
(PID.TID 0000.0001) rhoConstFresh = /* Fresh-water reference density ( kg/m^3 ) */
(PID.TID 0000.0001)                 9.998000000000000E+02
(PID.TID 0000.0001)     ;
(PID.TID 0000.0001) gravity =   /* Gravitational acceleration ( m/s^2 ) */
(PID.TID 0000.0001)                 9.810000000000000E+00
(PID.TID 0000.0001)     ;
(PID.TID 0000.0001) gBaro =   /* Barotropic gravity ( m/s^2 ) */
(PID.TID 0000.0001)                 9.810000000000000E+00
(PID.TID 0000.0001)     ;
(PID.TID 0000.0001) gravFacC = /* gravity factor (vs surf.) @ cell-Center (-) */
(PID.TID 0000.0001)    23 @  1.000000000000000E+00              /* K =  1: 23 */
(PID.TID 0000.0001)     ;
(PID.TID 0000.0001) gravFacF = /* gravity factor (vs surf.) @ W-Interface (-) */
(PID.TID 0000.0001)    24 @  1.000000000000000E+00              /* K =  1: 24 */
(PID.TID 0000.0001)     ;
(PID.TID 0000.0001) rotationPeriod =   /* Rotation Period ( s ) */
(PID.TID 0000.0001)                 8.616400000000000E+04
(PID.TID 0000.0001)     ;
(PID.TID 0000.0001) omega =   /* Angular velocity ( rad/s ) */
(PID.TID 0000.0001)                 7.292123516990375E-05
(PID.TID 0000.0001)     ;
(PID.TID 0000.0001) f0 =   /* Reference coriolis parameter ( 1/s ) */
(PID.TID 0000.0001)                 1.000000000000000E-04
(PID.TID 0000.0001)     ;
(PID.TID 0000.0001) beta =   /* Beta ( 1/(m.s) ) */
(PID.TID 0000.0001)                 9.999999999999999E-12
(PID.TID 0000.0001)     ;
(PID.TID 0000.0001) fPrime =   /* Second coriolis parameter ( 1/s ) */
(PID.TID 0000.0001)                 0.000000000000000E+00
(PID.TID 0000.0001)     ;
(PID.TID 0000.0001) rigidLid =   /* Rigid lid on/off flag */
(PID.TID 0000.0001)                   F
(PID.TID 0000.0001)     ;
(PID.TID 0000.0001) implicitFreeSurface =   /* Implicit free surface on/off flag */
(PID.TID 0000.0001)                   T
(PID.TID 0000.0001)     ;
(PID.TID 0000.0001) freeSurfFac =   /* Implicit free surface factor */
(PID.TID 0000.0001)                 1.000000000000000E+00
(PID.TID 0000.0001)     ;
(PID.TID 0000.0001) implicSurfPress =  /* Surface Pressure implicit factor (0-1) */
(PID.TID 0000.0001)                 1.000000000000000E+00
(PID.TID 0000.0001)     ;
(PID.TID 0000.0001) implicDiv2DFlow =  /* Barot. Flow Div. implicit factor (0-1) */
(PID.TID 0000.0001)                 1.000000000000000E+00
(PID.TID 0000.0001)     ;
(PID.TID 0000.0001) uniformLin_PhiSurf = /* use uniform Bo_surf on/off flag */
(PID.TID 0000.0001)                   T
(PID.TID 0000.0001)     ;
(PID.TID 0000.0001) uniformFreeSurfLev = /* free-surface level-index is uniform */
(PID.TID 0000.0001)                   T
(PID.TID 0000.0001)     ;
(PID.TID 0000.0001) sIceLoadFac =  /* scale factor for sIceLoad (0-1) */
(PID.TID 0000.0001)                 1.000000000000000E+00
(PID.TID 0000.0001)     ;
(PID.TID 0000.0001) hFacMin =   /* minimum partial cell factor (hFac) */
(PID.TID 0000.0001)                 1.000000000000000E+00
(PID.TID 0000.0001)     ;
(PID.TID 0000.0001) hFacMinDr = /* minimum partial cell thickness ( m) */
(PID.TID 0000.0001)                 0.000000000000000E+00
(PID.TID 0000.0001)     ;
(PID.TID 0000.0001) exactConserv =  /* Exact Volume Conservation on/off flag */
(PID.TID 0000.0001)                   F
(PID.TID 0000.0001)     ;
(PID.TID 0000.0001) linFSConserveTr = /* Tracer correction for Lin Free Surface on/off flag */
(PID.TID 0000.0001)                   F
(PID.TID 0000.0001)     ;
(PID.TID 0000.0001) nonlinFreeSurf = /* Non-linear Free Surf. options (-1,0,1,2,3)*/
(PID.TID 0000.0001)                       0
(PID.TID 0000.0001)      -1,0= Off ; 1,2,3= On, 2=+rescale gU,gV, 3=+update cg2d solv.
(PID.TID 0000.0001)     ;
(PID.TID 0000.0001) hFacInf =   /* lower threshold for hFac (nonlinFreeSurf only)*/
(PID.TID 0000.0001)                 2.000000000000000E-01
(PID.TID 0000.0001)     ;
(PID.TID 0000.0001) hFacSup =   /* upper threshold for hFac (nonlinFreeSurf only)*/
(PID.TID 0000.0001)                 2.000000000000000E+00
(PID.TID 0000.0001)     ;
(PID.TID 0000.0001) select_rStar = /* r* Vertical coord. options (=0 r coord.; >0 uses r*)*/
(PID.TID 0000.0001)                       0
(PID.TID 0000.0001)     ;
(PID.TID 0000.0001) useRealFreshWaterFlux = /* Real Fresh Water Flux on/off flag*/
(PID.TID 0000.0001)                   F
(PID.TID 0000.0001)     ;
(PID.TID 0000.0001) temp_EvPrRn = /* Temp. of Evap/Prec/R (UNSET=use local T)(oC)*/
(PID.TID 0000.0001)                 1.234567000000000E+05
(PID.TID 0000.0001)     ;
(PID.TID 0000.0001) salt_EvPrRn = /* Salin. of Evap/Prec/R (UNSET=use local S)(g/kg)*/
(PID.TID 0000.0001)                 0.000000000000000E+00
(PID.TID 0000.0001)     ;
(PID.TID 0000.0001) selectAddFluid = /* option for mass source/sink of fluid (=0: off) */
(PID.TID 0000.0001)                       0
(PID.TID 0000.0001)     ;
(PID.TID 0000.0001) temp_addMass = /* Temp. of addMass array (UNSET=use local T)(oC)*/
(PID.TID 0000.0001)                 1.234567000000000E+05
(PID.TID 0000.0001)     ;
(PID.TID 0000.0001) salt_addMass = /* Salin. of addMass array (UNSET=use local S)(g/kg)*/
(PID.TID 0000.0001)                 0.000000000000000E+00
(PID.TID 0000.0001)     ;
(PID.TID 0000.0001) convertFW2Salt = /* convert F.W. Flux to Salt Flux (-1=use local S)(g/kg)*/
(PID.TID 0000.0001)                 3.500000000000000E+01
(PID.TID 0000.0001)     ;
(PID.TID 0000.0001) use3Dsolver = /* use 3-D pressure solver on/off flag */
(PID.TID 0000.0001)                   F
(PID.TID 0000.0001)     ;
(PID.TID 0000.0001) nonHydrostatic =  /* Non-Hydrostatic on/off flag */
(PID.TID 0000.0001)                   F
(PID.TID 0000.0001)     ;
(PID.TID 0000.0001) nh_Am2 = /* Non-Hydrostatic terms scaling factor */
(PID.TID 0000.0001)                 1.000000000000000E+00
(PID.TID 0000.0001)     ;
(PID.TID 0000.0001) implicitNHPress = /* Non-Hyd Pressure implicit factor (0-1)*/
(PID.TID 0000.0001)                 1.000000000000000E+00
(PID.TID 0000.0001)     ;
(PID.TID 0000.0001) selectNHfreeSurf = /* Non-Hyd (free-)Surface option */
(PID.TID 0000.0001)                       0
(PID.TID 0000.0001)     ;
(PID.TID 0000.0001) quasiHydrostatic = /* Quasi-Hydrostatic on/off flag */
(PID.TID 0000.0001)                   F
(PID.TID 0000.0001)     ;
(PID.TID 0000.0001) calc_wVelocity = /* vertical velocity calculation on/off flag */
(PID.TID 0000.0001)                   F
(PID.TID 0000.0001)     ;
(PID.TID 0000.0001) momStepping =  /* Momentum equation on/off flag */
(PID.TID 0000.0001)                   F
(PID.TID 0000.0001)     ;
(PID.TID 0000.0001) vectorInvariantMomentum= /* Vector-Invariant Momentum on/off */
(PID.TID 0000.0001)                   F
(PID.TID 0000.0001)     ;
(PID.TID 0000.0001) momAdvection =  /* Momentum advection on/off flag */
(PID.TID 0000.0001)                   F
(PID.TID 0000.0001)     ;
(PID.TID 0000.0001) momViscosity =  /* Momentum viscosity on/off flag */
(PID.TID 0000.0001)                   F
(PID.TID 0000.0001)     ;
(PID.TID 0000.0001) momImplVertAdv= /* Momentum implicit vert. advection on/off*/
(PID.TID 0000.0001)                   F
(PID.TID 0000.0001)     ;
(PID.TID 0000.0001) implicitViscosity = /* Implicit viscosity on/off flag */
(PID.TID 0000.0001)                   F
(PID.TID 0000.0001)     ;
(PID.TID 0000.0001) selectImplicitDrag= /* Implicit bot Drag options (0,1,2)*/
(PID.TID 0000.0001)                       0
(PID.TID 0000.0001)     0= Expl. ; 1= Impl. on provis. Vel ; 2= Fully Impl (with surf.P)
(PID.TID 0000.0001)     ;
(PID.TID 0000.0001) metricTerms =  /* metric-Terms on/off flag */
(PID.TID 0000.0001)                   T
(PID.TID 0000.0001)     ;
(PID.TID 0000.0001) useNHMTerms = /* Non-Hydrostatic Metric-Terms on/off */
(PID.TID 0000.0001)                   F
(PID.TID 0000.0001)     ;
(PID.TID 0000.0001) selectCoriMap = /* Coriolis Map options (0,1,2,3)*/
(PID.TID 0000.0001)                       2
(PID.TID 0000.0001)     0= f-Plane ; 1= Beta-Plane ; 2= Spherical ; 3= read from file
(PID.TID 0000.0001)     ;
(PID.TID 0000.0001) use3dCoriolis = /* 3-D Coriolis on/off flag */
(PID.TID 0000.0001)                   F
(PID.TID 0000.0001)     ;
(PID.TID 0000.0001) useCoriolis =  /* Coriolis on/off flag */
(PID.TID 0000.0001)                   F
(PID.TID 0000.0001)     ;
(PID.TID 0000.0001) useCDscheme =  /* CD scheme on/off flag */
(PID.TID 0000.0001)                   F
(PID.TID 0000.0001)     ;
(PID.TID 0000.0001) selectCoriScheme= /* Scheme selector for Coriolis-Term */
(PID.TID 0000.0001)                       0
(PID.TID 0000.0001)    = 0 : original discretization (simple averaging, no hFac)
(PID.TID 0000.0001)    = 1 : Wet-point averaging (Jamar & Ozer 1986)
(PID.TID 0000.0001)    = 2 : energy conserving scheme (no hFac weight)
(PID.TID 0000.0001)    = 3 : energy conserving scheme using Wet-point averaging
(PID.TID 0000.0001)     ;
(PID.TID 0000.0001) momForcing =  /* Momentum forcing on/off flag */
(PID.TID 0000.0001)                   F
(PID.TID 0000.0001)     ;
(PID.TID 0000.0001) momPressureForcing =  /* Momentum pressure term on/off flag */
(PID.TID 0000.0001)                   F
(PID.TID 0000.0001)     ;
(PID.TID 0000.0001) implicitIntGravWave= /* Implicit Internal Gravity Wave flag */
(PID.TID 0000.0001)                   F
(PID.TID 0000.0001)     ;
(PID.TID 0000.0001) staggerTimeStep =    /* Stagger time stepping on/off flag */
(PID.TID 0000.0001)                   F
(PID.TID 0000.0001)     ;
(PID.TID 0000.0001) doResetHFactors = /* reset thickness factors @ each time-step */
(PID.TID 0000.0001)                   F
(PID.TID 0000.0001)     ;
(PID.TID 0000.0001) multiDimAdvection =  /* enable/disable Multi-Dim Advection */
(PID.TID 0000.0001)                   T
(PID.TID 0000.0001)     ;
(PID.TID 0000.0001) useMultiDimAdvec =   /* Multi-Dim Advection is/is-not used */
(PID.TID 0000.0001)                   T
(PID.TID 0000.0001)     ;
(PID.TID 0000.0001) implicitDiffusion = /* Implicit Diffusion on/off flag */
(PID.TID 0000.0001)                   T
(PID.TID 0000.0001)     ;
(PID.TID 0000.0001) tempStepping =  /* Temperature equation on/off flag */
(PID.TID 0000.0001)                   F
(PID.TID 0000.0001)     ;
(PID.TID 0000.0001) tempAdvection = /* Temperature advection on/off flag */
(PID.TID 0000.0001)                   F
(PID.TID 0000.0001)     ;
(PID.TID 0000.0001) tempImplVertAdv = /* Temp. implicit vert. advection on/off */
(PID.TID 0000.0001)                   F
(PID.TID 0000.0001)     ;
(PID.TID 0000.0001) tempForcing  =  /* Temperature forcing on/off flag */
(PID.TID 0000.0001)                   F
(PID.TID 0000.0001)     ;
(PID.TID 0000.0001) doThetaClimRelax = /* apply SST relaxation on/off flag */
(PID.TID 0000.0001)                   F
(PID.TID 0000.0001)     ;
(PID.TID 0000.0001) tempIsActiveTr = /* Temp. is a dynamically Active Tracer */
(PID.TID 0000.0001)                   F
(PID.TID 0000.0001)     ;
(PID.TID 0000.0001) saltStepping =  /* Salinity equation on/off flag */
(PID.TID 0000.0001)                   F
(PID.TID 0000.0001)     ;
(PID.TID 0000.0001) saltAdvection = /* Salinity advection on/off flag */
(PID.TID 0000.0001)                   F
(PID.TID 0000.0001)     ;
(PID.TID 0000.0001) saltImplVertAdv = /* Sali. implicit vert. advection on/off */
(PID.TID 0000.0001)                   F
(PID.TID 0000.0001)     ;
(PID.TID 0000.0001) saltForcing  =  /* Salinity forcing on/off flag */
(PID.TID 0000.0001)                   F
(PID.TID 0000.0001)     ;
(PID.TID 0000.0001) doSaltClimRelax = /* apply SSS relaxation on/off flag */
(PID.TID 0000.0001)                   F
(PID.TID 0000.0001)     ;
(PID.TID 0000.0001) saltIsActiveTr = /* Salt  is a dynamically Active Tracer */
(PID.TID 0000.0001)                   F
(PID.TID 0000.0001)     ;
(PID.TID 0000.0001)  readBinaryPrec = /* Precision used for reading binary files */
(PID.TID 0000.0001)                      32
(PID.TID 0000.0001)     ;
(PID.TID 0000.0001) writeBinaryPrec = /* Precision used for writing binary files */
(PID.TID 0000.0001)                      32
(PID.TID 0000.0001)     ;
(PID.TID 0000.0001)  rwSuffixType =   /* select format of mds file suffix */
(PID.TID 0000.0001)                       0
(PID.TID 0000.0001)    = 0 : myIter (I10.10) ;   = 1 : 100*myTime (100th sec) ;
(PID.TID 0000.0001)    = 2 : myTime (seconds);   = 3 : myTime/360 (10th of hr);
(PID.TID 0000.0001)    = 4 : myTime/3600 (hours)
(PID.TID 0000.0001)     ;
(PID.TID 0000.0001)  globalFiles = /* write "global" (=not per tile) files */
(PID.TID 0000.0001)                   F
(PID.TID 0000.0001)     ;
(PID.TID 0000.0001)  useSingleCpuIO = /* only master MPI process does I/O */
(PID.TID 0000.0001)                   T
(PID.TID 0000.0001)     ;
(PID.TID 0000.0001)  useSingleCpuInput = /* only master process reads input */
(PID.TID 0000.0001)                   T
(PID.TID 0000.0001)     ;
(PID.TID 0000.0001) /* debLev[*]  : level of debug & auxiliary message printing */
(PID.TID 0000.0001) debLevZero =  0 ; /* level of disabled aux. msg printing */
(PID.TID 0000.0001)    debLevA =  1 ; /* level of minimum  aux. msg printing */
(PID.TID 0000.0001)    debLevB =  2 ; /* level of low aux. print (report read-file opening)*/
(PID.TID 0000.0001)    debLevC =  3 ; /* level of moderate debug prt (most pkgs debug msg) */
(PID.TID 0000.0001)    debLevD =  4 ; /* level of enhanced debug prt (add DEBUG_STATS prt) */
(PID.TID 0000.0001)    debLevE =  5 ; /* level of extensive debug printing */
(PID.TID 0000.0001) debugLevel =  /* select debug printing level */
(PID.TID 0000.0001)                       2
(PID.TID 0000.0001)     ;
(PID.TID 0000.0001)  plotLevel =  /* select PLOT_FIELD printing level */
(PID.TID 0000.0001)                       2
(PID.TID 0000.0001)     ;
(PID.TID 0000.0001) //
(PID.TID 0000.0001) // Elliptic solver(s) paramters ( PARM02 in namelist )
(PID.TID 0000.0001) //
(PID.TID 0000.0001) cg2dMaxIters =   /* Upper limit on 2d con. grad iterations  */
(PID.TID 0000.0001)                     300
(PID.TID 0000.0001)     ;
(PID.TID 0000.0001) cg2dMinItersNSA =   /* Minimum number of iterations of 2d con. grad solver  */
(PID.TID 0000.0001)                       0
(PID.TID 0000.0001)     ;
(PID.TID 0000.0001) cg2dUseMinResSol= /* use cg2d last-iter(=0) / min-resid.(=1) solution */
(PID.TID 0000.0001)                       0
(PID.TID 0000.0001)     ;
(PID.TID 0000.0001) cg2dTargetResidual =   /* 2d con. grad target residual  */
(PID.TID 0000.0001)                 1.000000000000000E-07
(PID.TID 0000.0001)     ;
(PID.TID 0000.0001) cg2dTargetResWunit =   /* CG2d target residual [W units] */
(PID.TID 0000.0001)                -1.000000000000000E+00
(PID.TID 0000.0001)     ;
(PID.TID 0000.0001) cg2dPreCondFreq =   /* Freq. for updating cg2d preconditioner */
(PID.TID 0000.0001)                       1
(PID.TID 0000.0001)     ;
(PID.TID 0000.0001) useSRCGSolver =  /* use single reduction CG solver(s) */
(PID.TID 0000.0001)                   F
(PID.TID 0000.0001)     ;
(PID.TID 0000.0001) useNSACGSolver =  /* use not-self-adjoint CG solver */
(PID.TID 0000.0001)                   F
(PID.TID 0000.0001)     ;
(PID.TID 0000.0001) printResidualFreq = /* Freq. for printing CG residual */
(PID.TID 0000.0001)                       0
(PID.TID 0000.0001)     ;
(PID.TID 0000.0001) //
(PID.TID 0000.0001) // Time stepping paramters ( PARM03 in namelist )
(PID.TID 0000.0001) //
(PID.TID 0000.0001) deltaTMom =   /* Momentum equation timestep ( s ) */
(PID.TID 0000.0001)                 3.600000000000000E+03
(PID.TID 0000.0001)     ;
(PID.TID 0000.0001) deltaTFreeSurf = /* FreeSurface equation timestep ( s ) */
(PID.TID 0000.0001)                 3.600000000000000E+03
(PID.TID 0000.0001)     ;
(PID.TID 0000.0001) dTtracerLev =  /* Tracer equation timestep ( s ) */
(PID.TID 0000.0001)    23 @  3.600000000000000E+03              /* K =  1: 23 */
(PID.TID 0000.0001)     ;
(PID.TID 0000.0001) deltaTClock  =   /* Model clock timestep ( s ) */
(PID.TID 0000.0001)                 3.600000000000000E+03
(PID.TID 0000.0001)     ;
(PID.TID 0000.0001) cAdjFreq =   /* Convective adjustment interval ( s ) */
(PID.TID 0000.0001)                 0.000000000000000E+00
(PID.TID 0000.0001)     ;
(PID.TID 0000.0001) momForcingOutAB = /* =1: take Momentum Forcing out of Adams-Bash. stepping */
(PID.TID 0000.0001)                       0
(PID.TID 0000.0001)     ;
(PID.TID 0000.0001) tracForcingOutAB = /* =1: take T,S,pTr Forcing out of Adams-Bash. stepping */
(PID.TID 0000.0001)                       0
(PID.TID 0000.0001)     ;
(PID.TID 0000.0001) momDissip_In_AB = /* put Dissipation Tendency in Adams-Bash. stepping */
(PID.TID 0000.0001)                   T
(PID.TID 0000.0001)     ;
(PID.TID 0000.0001) doAB_onGtGs = /* apply AB on Tendencies (rather than on T,S)*/
(PID.TID 0000.0001)                   T
(PID.TID 0000.0001)     ;
(PID.TID 0000.0001) abEps =   /* Adams-Bashforth-2 stabilizing weight */
(PID.TID 0000.0001)                 1.000000000000000E-01
(PID.TID 0000.0001)     ;
(PID.TID 0000.0001) applyExchUV_early = /* Apply EXCH to U,V earlier in time-step */
(PID.TID 0000.0001)                   F
(PID.TID 0000.0001)     ;
(PID.TID 0000.0001) pickupSuff = /* Suffix of pickup-file to restart from */
(PID.TID 0000.0001)               'darwin    '
(PID.TID 0000.0001)     ;
(PID.TID 0000.0001) pickupStrictlyMatch= /* stop if pickup do not strictly match */
(PID.TID 0000.0001)                   T
(PID.TID 0000.0001)     ;
(PID.TID 0000.0001) nIter0   =   /* Run starting timestep number */
(PID.TID 0000.0001)                       0
(PID.TID 0000.0001)     ;
(PID.TID 0000.0001) nTimeSteps = /* Number of timesteps */
(PID.TID 0000.0001)                       4
(PID.TID 0000.0001)     ;
(PID.TID 0000.0001) nEndIter =   /* Run ending timestep number */
(PID.TID 0000.0001)                       4
(PID.TID 0000.0001)     ;
(PID.TID 0000.0001) baseTime =   /* Model base time ( s ) */
(PID.TID 0000.0001)                 0.000000000000000E+00
(PID.TID 0000.0001)     ;
(PID.TID 0000.0001) startTime =  /* Run start time ( s ) */
(PID.TID 0000.0001)                 0.000000000000000E+00
(PID.TID 0000.0001)     ;
(PID.TID 0000.0001) endTime  =   /* Integration ending time ( s ) */
(PID.TID 0000.0001)                 1.440000000000000E+04
(PID.TID 0000.0001)     ;
(PID.TID 0000.0001) pChkPtFreq = /* Permanent restart/pickup file interval ( s ) */
(PID.TID 0000.0001)                 3.110400000000000E+07
(PID.TID 0000.0001)     ;
(PID.TID 0000.0001) chkPtFreq  = /* Rolling restart/pickup file interval ( s ) */
(PID.TID 0000.0001)                 3.110400000000000E+07
(PID.TID 0000.0001)     ;
(PID.TID 0000.0001) pickup_write_mdsio =   /* Model IO flag. */
(PID.TID 0000.0001)                   T
(PID.TID 0000.0001)     ;
(PID.TID 0000.0001) pickup_read_mdsio =   /* Model IO flag. */
(PID.TID 0000.0001)                   T
(PID.TID 0000.0001)     ;
(PID.TID 0000.0001) pickup_write_mnc =   /* Model IO flag. */
(PID.TID 0000.0001)                   F
(PID.TID 0000.0001)     ;
(PID.TID 0000.0001) pickup_read_mnc =   /* Model IO flag. */
(PID.TID 0000.0001)                   F
(PID.TID 0000.0001)     ;
(PID.TID 0000.0001) writePickupAtEnd =   /* Model IO flag. */
(PID.TID 0000.0001)                   T
(PID.TID 0000.0001)     ;
(PID.TID 0000.0001) dumpFreq =   /* Model state write out interval ( s ). */
(PID.TID 0000.0001)                 0.000000000000000E+00
(PID.TID 0000.0001)     ;
(PID.TID 0000.0001) dumpInitAndLast= /* write out Initial & Last iter. model state */
(PID.TID 0000.0001)                   F
(PID.TID 0000.0001)     ;
(PID.TID 0000.0001) snapshot_mdsio =   /* Model IO flag. */
(PID.TID 0000.0001)                   F
(PID.TID 0000.0001)     ;
(PID.TID 0000.0001) snapshot_mnc =   /* Model IO flag. */
(PID.TID 0000.0001)                   T
(PID.TID 0000.0001)     ;
(PID.TID 0000.0001) monitorFreq =   /* Monitor output interval ( s ). */
(PID.TID 0000.0001)                 1.000000000000000E+00
(PID.TID 0000.0001)     ;
(PID.TID 0000.0001) monitorSelect = /* select group of variables to monitor */
(PID.TID 0000.0001)                       3
(PID.TID 0000.0001)     ;
(PID.TID 0000.0001) monitor_stdio =   /* Model IO flag. */
(PID.TID 0000.0001)                   T
(PID.TID 0000.0001)     ;
(PID.TID 0000.0001) monitor_mnc =   /* Model IO flag. */
(PID.TID 0000.0001)                   F
(PID.TID 0000.0001)     ;
(PID.TID 0000.0001) externForcingPeriod =   /* forcing period (s) */
(PID.TID 0000.0001)                 2.592000000000000E+06
(PID.TID 0000.0001)     ;
(PID.TID 0000.0001) externForcingCycle =   /* period of the cyle (s). */
(PID.TID 0000.0001)                 3.110400000000000E+07
(PID.TID 0000.0001)     ;
(PID.TID 0000.0001) tauThetaClimRelax =   /* relaxation time scale (s) */
(PID.TID 0000.0001)                 0.000000000000000E+00
(PID.TID 0000.0001)     ;
(PID.TID 0000.0001) tauSaltClimRelax =   /* relaxation time scale (s) */
(PID.TID 0000.0001)                 0.000000000000000E+00
(PID.TID 0000.0001)     ;
(PID.TID 0000.0001) latBandClimRelax =   /* max. Lat. where relaxation */
(PID.TID 0000.0001)                 1.800000000000000E+02
(PID.TID 0000.0001)     ;
(PID.TID 0000.0001) //
(PID.TID 0000.0001) // Gridding paramters ( PARM04 in namelist )
(PID.TID 0000.0001) //
(PID.TID 0000.0001) usingCartesianGrid = /* Cartesian coordinates flag ( True/False ) */
(PID.TID 0000.0001)                   F
(PID.TID 0000.0001)     ;
(PID.TID 0000.0001) usingCylindricalGrid = /* Cylindrical coordinates flag ( True/False ) */
(PID.TID 0000.0001)                   F
(PID.TID 0000.0001)     ;
(PID.TID 0000.0001) usingSphericalPolarGrid = /* Spherical coordinates flag ( True/False ) */
(PID.TID 0000.0001)                   T
(PID.TID 0000.0001)     ;
(PID.TID 0000.0001) usingCurvilinearGrid = /* Curvilinear coordinates flag ( True/False ) */
(PID.TID 0000.0001)                   F
(PID.TID 0000.0001)     ;
(PID.TID 0000.0001) useMin4hFacEdges = /* set hFacW,S as minimum of adjacent hFacC factor */
(PID.TID 0000.0001)                   F
(PID.TID 0000.0001)     ;
(PID.TID 0000.0001) interViscAr_pCell = /* account for partial-cell in interior vert. viscosity */
(PID.TID 0000.0001)                   F
(PID.TID 0000.0001)     ;
(PID.TID 0000.0001) interDiffKr_pCell = /* account for partial-cell in interior vert. diffusion */
(PID.TID 0000.0001)                   F
(PID.TID 0000.0001)     ;
(PID.TID 0000.0001) pCellMix_select = /* option to enhance mixing near surface & bottom */
(PID.TID 0000.0001)                       0
(PID.TID 0000.0001)     ;
(PID.TID 0000.0001) selectSigmaCoord = /* Hybrid-Sigma Vert. Coordinate option */
(PID.TID 0000.0001)                       0
(PID.TID 0000.0001)     ;
(PID.TID 0000.0001) rSigmaBnd = /* r/sigma transition ( units of r ==  m ) */
(PID.TID 0000.0001)                 1.234567000000000E+05
(PID.TID 0000.0001)     ;
(PID.TID 0000.0001) rkSign =   /* index orientation relative to vertical coordinate */
(PID.TID 0000.0001)                -1.000000000000000E+00
(PID.TID 0000.0001)     ;
(PID.TID 0000.0001) gravitySign = /* gravity orientation relative to vertical coordinate */
(PID.TID 0000.0001)                -1.000000000000000E+00
(PID.TID 0000.0001)     ;
(PID.TID 0000.0001) seaLev_Z =  /* reference height of sea-level [m] */
(PID.TID 0000.0001)                 0.000000000000000E+00
(PID.TID 0000.0001)     ;
(PID.TID 0000.0001) top_Pres =  /* reference pressure at the top [Pa] */
(PID.TID 0000.0001)                 0.000000000000000E+00
(PID.TID 0000.0001)     ;
(PID.TID 0000.0001) mass2rUnit = /* convert mass per unit area [kg/m2] to r-units [m] */
(PID.TID 0000.0001)                 1.000200040008002E-03
(PID.TID 0000.0001)     ;
(PID.TID 0000.0001) rUnit2mass = /* convert r-units [m] to mass per unit area [kg/m2] */
(PID.TID 0000.0001)                 9.998000000000000E+02
(PID.TID 0000.0001)     ;
(PID.TID 0000.0001) drC =   /* C spacing ( units of r ) */
(PID.TID 0000.0001)                 5.000000000000000E+00,      /* K =  1 */
(PID.TID 0000.0001)                 1.000000000000000E+01,      /* K =  2 */
(PID.TID 0000.0001)                 1.250000000000000E+01,      /* K =  3 */
(PID.TID 0000.0001)                 1.750000000000000E+01,      /* K =  4 */
(PID.TID 0000.0001)                 2.000000000000000E+01,      /* K =  5 */
(PID.TID 0000.0001)                 2.250000000000000E+01,      /* K =  6 */
(PID.TID 0000.0001)                 3.000000000000000E+01,      /* K =  7 */
(PID.TID 0000.0001)                 4.250000000000000E+01,      /* K =  8 */
(PID.TID 0000.0001)                 6.250000000000000E+01,      /* K =  9 */
(PID.TID 0000.0001)                 8.750000000000000E+01,      /* K = 10 */
(PID.TID 0000.0001)                 1.250000000000000E+02,      /* K = 11 */
(PID.TID 0000.0001)                 1.750000000000000E+02,      /* K = 12 */
(PID.TID 0000.0001)                 2.375000000000000E+02,      /* K = 13 */
(PID.TID 0000.0001)                 3.125000000000000E+02,      /* K = 14 */
(PID.TID 0000.0001)                 3.825000000000000E+02,      /* K = 15 */
(PID.TID 0000.0001)                 4.325000000000000E+02,      /* K = 16 */
(PID.TID 0000.0001)                 4.750000000000000E+02,      /* K = 17 */
(PID.TID 0000.0001)     6 @  5.000000000000000E+02,             /* K = 18: 23 */
(PID.TID 0000.0001)                 2.500000000000000E+02       /* K = 24 */
(PID.TID 0000.0001)     ;
(PID.TID 0000.0001) drF =   /* W spacing ( units of r ) */
(PID.TID 0000.0001)     2 @  1.000000000000000E+01,             /* K =  1:  2 */
(PID.TID 0000.0001)                 1.500000000000000E+01,      /* K =  3 */
(PID.TID 0000.0001)     2 @  2.000000000000000E+01,             /* K =  4:  5 */
(PID.TID 0000.0001)                 2.500000000000000E+01,      /* K =  6 */
(PID.TID 0000.0001)                 3.500000000000000E+01,      /* K =  7 */
(PID.TID 0000.0001)                 5.000000000000000E+01,      /* K =  8 */
(PID.TID 0000.0001)                 7.500000000000000E+01,      /* K =  9 */
(PID.TID 0000.0001)                 1.000000000000000E+02,      /* K = 10 */
(PID.TID 0000.0001)                 1.500000000000000E+02,      /* K = 11 */
(PID.TID 0000.0001)                 2.000000000000000E+02,      /* K = 12 */
(PID.TID 0000.0001)                 2.750000000000000E+02,      /* K = 13 */
(PID.TID 0000.0001)                 3.500000000000000E+02,      /* K = 14 */
(PID.TID 0000.0001)                 4.150000000000000E+02,      /* K = 15 */
(PID.TID 0000.0001)                 4.500000000000000E+02,      /* K = 16 */
(PID.TID 0000.0001)     7 @  5.000000000000000E+02              /* K = 17: 23 */
(PID.TID 0000.0001)     ;
(PID.TID 0000.0001) delX = /* U spacing ( m - cartesian, degrees - spherical ) */
(PID.TID 0000.0001)   360 @  1.000000000000000E+00              /* I =  1:360 */
(PID.TID 0000.0001)     ;
(PID.TID 0000.0001) delY = /* V spacing ( m - cartesian, degrees - spherical ) */
(PID.TID 0000.0001)   160 @  1.000000000000000E+00              /* J =  1:160 */
(PID.TID 0000.0001)     ;
(PID.TID 0000.0001) xgOrigin = /* X-axis origin of West  edge (cartesian: m, lat-lon: deg) */
(PID.TID 0000.0001)                 0.000000000000000E+00
(PID.TID 0000.0001)     ;
(PID.TID 0000.0001) ygOrigin = /* Y-axis origin of South edge (cartesian: m, lat-lon: deg) */
(PID.TID 0000.0001)                -8.000000000000000E+01
(PID.TID 0000.0001)     ;
(PID.TID 0000.0001) rSphere =  /* Radius ( ignored - cartesian, m - spherical ) */
(PID.TID 0000.0001)                 6.370000000000000E+06
(PID.TID 0000.0001)     ;
(PID.TID 0000.0001) deepAtmosphere = /* Deep/Shallow Atmosphere flag (True/False) */
(PID.TID 0000.0001)                   F
(PID.TID 0000.0001)     ;
(PID.TID 0000.0001) xC =  /* xC(:,1,:,1) : P-point X coord ( deg. or m if cartesian) */
(PID.TID 0000.0001)                 5.000000000000000E-01,      /* I =  1 */
(PID.TID 0000.0001)                 1.500000000000000E+00,      /* I =  2 */
(PID.TID 0000.0001)                 2.500000000000000E+00,      /* I =  3 */
(PID.TID 0000.0001)                 3.500000000000000E+00,      /* I =  4 */
(PID.TID 0000.0001)                 4.500000000000000E+00,      /* I =  5 */
(PID.TID 0000.0001)                 5.500000000000000E+00,      /* I =  6 */
(PID.TID 0000.0001)                 6.500000000000000E+00,      /* I =  7 */
(PID.TID 0000.0001)                 7.500000000000000E+00,      /* I =  8 */
(PID.TID 0000.0001)                 8.500000000000000E+00,      /* I =  9 */
(PID.TID 0000.0001)                 9.500000000000000E+00,      /* I = 10 */
(PID.TID 0000.0001)                 1.050000000000000E+01,      /* I = 11 */
(PID.TID 0000.0001)                 1.150000000000000E+01,      /* I = 12 */
(PID.TID 0000.0001)                 1.250000000000000E+01,      /* I = 13 */
(PID.TID 0000.0001)                 1.350000000000000E+01,      /* I = 14 */
(PID.TID 0000.0001)                 1.450000000000000E+01,      /* I = 15 */
(PID.TID 0000.0001)                 1.550000000000000E+01,      /* I = 16 */
(PID.TID 0000.0001)                 1.650000000000000E+01,      /* I = 17 */
(PID.TID 0000.0001)                 1.750000000000000E+01,      /* I = 18 */
(PID.TID 0000.0001)                 1.850000000000000E+01,      /* I = 19 */
(PID.TID 0000.0001)                 1.950000000000000E+01       /* I = 20 */
(PID.TID 0000.0001)     ;
(PID.TID 0000.0001) yC =  /* yC(1,:,1,:) : P-point Y coord ( deg. or m if cartesian) */
(PID.TID 0000.0001)                -7.950000000000000E+01,      /* J =  1 */
(PID.TID 0000.0001)                -7.850000000000000E+01,      /* J =  2 */
(PID.TID 0000.0001)                -7.750000000000000E+01,      /* J =  3 */
(PID.TID 0000.0001)                -7.650000000000000E+01,      /* J =  4 */
(PID.TID 0000.0001)                -7.550000000000000E+01,      /* J =  5 */
(PID.TID 0000.0001)                -7.450000000000000E+01,      /* J =  6 */
(PID.TID 0000.0001)                -7.350000000000000E+01,      /* J =  7 */
(PID.TID 0000.0001)                -7.250000000000000E+01,      /* J =  8 */
(PID.TID 0000.0001)                -7.150000000000000E+01,      /* J =  9 */
(PID.TID 0000.0001)                -7.050000000000000E+01,      /* J = 10 */
(PID.TID 0000.0001)                -6.950000000000000E+01,      /* J = 11 */
(PID.TID 0000.0001)                -6.850000000000000E+01,      /* J = 12 */
(PID.TID 0000.0001)                -6.750000000000000E+01,      /* J = 13 */
(PID.TID 0000.0001)                -6.650000000000000E+01,      /* J = 14 */
(PID.TID 0000.0001)                -6.550000000000000E+01,      /* J = 15 */
(PID.TID 0000.0001)                -6.450000000000000E+01,      /* J = 16 */
(PID.TID 0000.0001)                -6.350000000000000E+01,      /* J = 17 */
(PID.TID 0000.0001)                -6.250000000000000E+01,      /* J = 18 */
(PID.TID 0000.0001)                -6.150000000000000E+01,      /* J = 19 */
(PID.TID 0000.0001)                -6.050000000000000E+01       /* J = 20 */
(PID.TID 0000.0001)     ;
(PID.TID 0000.0001) rcoord = /* P-point R coordinate (  units of r ) */
(PID.TID 0000.0001)                -5.000000000000000E+00,      /* K =  1 */
(PID.TID 0000.0001)                -1.500000000000000E+01,      /* K =  2 */
(PID.TID 0000.0001)                -2.750000000000000E+01,      /* K =  3 */
(PID.TID 0000.0001)                -4.500000000000000E+01,      /* K =  4 */
(PID.TID 0000.0001)                -6.500000000000000E+01,      /* K =  5 */
(PID.TID 0000.0001)                -8.750000000000000E+01,      /* K =  6 */
(PID.TID 0000.0001)                -1.175000000000000E+02,      /* K =  7 */
(PID.TID 0000.0001)                -1.600000000000000E+02,      /* K =  8 */
(PID.TID 0000.0001)                -2.225000000000000E+02,      /* K =  9 */
(PID.TID 0000.0001)                -3.100000000000000E+02,      /* K = 10 */
(PID.TID 0000.0001)                -4.350000000000000E+02,      /* K = 11 */
(PID.TID 0000.0001)                -6.100000000000000E+02,      /* K = 12 */
(PID.TID 0000.0001)                -8.475000000000000E+02,      /* K = 13 */
(PID.TID 0000.0001)                -1.160000000000000E+03,      /* K = 14 */
(PID.TID 0000.0001)                -1.542500000000000E+03,      /* K = 15 */
(PID.TID 0000.0001)                -1.975000000000000E+03,      /* K = 16 */
(PID.TID 0000.0001)                -2.450000000000000E+03,      /* K = 17 */
(PID.TID 0000.0001)                -2.950000000000000E+03,      /* K = 18 */
(PID.TID 0000.0001)                -3.450000000000000E+03,      /* K = 19 */
(PID.TID 0000.0001)                -3.950000000000000E+03,      /* K = 20 */
(PID.TID 0000.0001)                -4.450000000000000E+03,      /* K = 21 */
(PID.TID 0000.0001)                -4.950000000000000E+03,      /* K = 22 */
(PID.TID 0000.0001)                -5.450000000000000E+03       /* K = 23 */
(PID.TID 0000.0001)     ;
(PID.TID 0000.0001) rF =   /* W-Interf. R coordinate (  units of r ) */
(PID.TID 0000.0001)                 0.000000000000000E+00,      /* K =  1 */
(PID.TID 0000.0001)                -1.000000000000000E+01,      /* K =  2 */
(PID.TID 0000.0001)                -2.000000000000000E+01,      /* K =  3 */
(PID.TID 0000.0001)                -3.500000000000000E+01,      /* K =  4 */
(PID.TID 0000.0001)                -5.500000000000000E+01,      /* K =  5 */
(PID.TID 0000.0001)                -7.500000000000000E+01,      /* K =  6 */
(PID.TID 0000.0001)                -1.000000000000000E+02,      /* K =  7 */
(PID.TID 0000.0001)                -1.350000000000000E+02,      /* K =  8 */
(PID.TID 0000.0001)                -1.850000000000000E+02,      /* K =  9 */
(PID.TID 0000.0001)                -2.600000000000000E+02,      /* K = 10 */
(PID.TID 0000.0001)                -3.600000000000000E+02,      /* K = 11 */
(PID.TID 0000.0001)                -5.100000000000000E+02,      /* K = 12 */
(PID.TID 0000.0001)                -7.100000000000000E+02,      /* K = 13 */
(PID.TID 0000.0001)                -9.850000000000000E+02,      /* K = 14 */
(PID.TID 0000.0001)                -1.335000000000000E+03,      /* K = 15 */
(PID.TID 0000.0001)                -1.750000000000000E+03,      /* K = 16 */
(PID.TID 0000.0001)                -2.200000000000000E+03,      /* K = 17 */
(PID.TID 0000.0001)                -2.700000000000000E+03,      /* K = 18 */
(PID.TID 0000.0001)                -3.200000000000000E+03,      /* K = 19 */
(PID.TID 0000.0001)                -3.700000000000000E+03,      /* K = 20 */
(PID.TID 0000.0001)                -4.200000000000000E+03,      /* K = 21 */
(PID.TID 0000.0001)                -4.700000000000000E+03,      /* K = 22 */
(PID.TID 0000.0001)                -5.200000000000000E+03,      /* K = 23 */
(PID.TID 0000.0001)                -5.700000000000000E+03       /* K = 24 */
(PID.TID 0000.0001)     ;
(PID.TID 0000.0001) deepFacC = /* deep-model grid factor @ cell-Center (-) */
(PID.TID 0000.0001)    23 @  1.000000000000000E+00              /* K =  1: 23 */
(PID.TID 0000.0001)     ;
(PID.TID 0000.0001) deepFacF = /* deep-model grid factor @ W-Interface (-) */
(PID.TID 0000.0001)    24 @  1.000000000000000E+00              /* K =  1: 24 */
(PID.TID 0000.0001)     ;
(PID.TID 0000.0001) rotateGrid = /* use rotated grid ( True/False ) */
(PID.TID 0000.0001)                   F
(PID.TID 0000.0001)     ;
(PID.TID 0000.0001) phiEuler = /* Euler angle, rotation about original z-coordinate [rad] */
(PID.TID 0000.0001)                 0.000000000000000E+00
(PID.TID 0000.0001)     ;
(PID.TID 0000.0001) thetaEuler = /* Euler angle, rotation about new x-coordinate [rad] */
(PID.TID 0000.0001)                 0.000000000000000E+00
(PID.TID 0000.0001)     ;
(PID.TID 0000.0001) psiEuler = /* Euler angle, rotation about new z-coordinate [rad] */
(PID.TID 0000.0001)                 0.000000000000000E+00
(PID.TID 0000.0001)     ;
(PID.TID 0000.0001) dxF =  /* dxF(:,1,:,1) ( units: m ) */
(PID.TID 0000.0001)    20 @  2.026048527919801E+04              /* I =  1: 20 */
(PID.TID 0000.0001)     ;
(PID.TID 0000.0001) dxF =  /* dxF(1,:,1,:) ( units: m ) */
(PID.TID 0000.0001)                 2.026048527919801E+04,      /* J =  1 */
(PID.TID 0000.0001)                 2.216522321591896E+04,      /* J =  2 */
(PID.TID 0000.0001)                 2.406320941092900E+04,      /* J =  3 */
(PID.TID 0000.0001)                 2.595386571924693E+04,      /* J =  4 */
(PID.TID 0000.0001)                 2.783661622864603E+04,      /* J =  5 */
(PID.TID 0000.0001)                 2.971088743508253E+04,      /* J =  6 */
(PID.TID 0000.0001)                 3.157610841739049E+04,      /* J =  7 */
(PID.TID 0000.0001)                 3.343171101118984E+04,      /* J =  8 */
(PID.TID 0000.0001)                 3.527712998195495E+04,      /* J =  9 */
(PID.TID 0000.0001)                 3.711180319719033E+04,      /* J = 10 */
(PID.TID 0000.0001)                 3.893517179766173E+04,      /* J = 11 */
(PID.TID 0000.0001)                 4.074668036763009E+04,      /* J = 12 */
(PID.TID 0000.0001)                 4.254577710403652E+04,      /* J = 13 */
(PID.TID 0000.0001)                 4.433191398458684E+04,      /* J = 14 */
(PID.TID 0000.0001)                 4.610454693468459E+04,      /* J = 15 */
(PID.TID 0000.0001)                 4.786313599316124E+04,      /* J = 16 */
(PID.TID 0000.0001)                 4.960714547675374E+04,      /* J = 17 */
(PID.TID 0000.0001)                 5.133604414327884E+04,      /* J = 18 */
(PID.TID 0000.0001)                 5.304930535345447E+04,      /* J = 19 */
(PID.TID 0000.0001)                 5.474640723131929E+04       /* J = 20 */
(PID.TID 0000.0001)     ;
(PID.TID 0000.0001) dyF =  /* dyF(:,1,:,1) ( units: m ) */
(PID.TID 0000.0001)    20 @  1.111774733520388E+05              /* I =  1: 20 */
(PID.TID 0000.0001)     ;
(PID.TID 0000.0001) dyF =  /* dyF(1,:,1,:) ( units: m ) */
(PID.TID 0000.0001)    20 @  1.111774733520388E+05              /* J =  1: 20 */
(PID.TID 0000.0001)     ;
(PID.TID 0000.0001) dxG =  /* dxG(:,1,:,1) ( units: m ) */
(PID.TID 0000.0001)    20 @  1.930576564519525E+04              /* I =  1: 20 */
(PID.TID 0000.0001)     ;
(PID.TID 0000.0001) dxG =  /* dxG(1,:,1,:) ( units: m ) */
(PID.TID 0000.0001)                 1.930576564519525E+04,      /* J =  1 */
(PID.TID 0000.0001)                 2.121366199880512E+04,      /* J =  2 */
(PID.TID 0000.0001)                 2.311509646546878E+04,      /* J =  3 */
(PID.TID 0000.0001)                 2.500948984982807E+04,      /* J =  4 */
(PID.TID 0000.0001)                 2.689626510130676E+04,      /* J =  5 */
(PID.TID 0000.0001)                 2.877484748988563E+04,      /* J =  6 */
(PID.TID 0000.0001)                 3.064466478117086E+04,      /* J =  7 */
(PID.TID 0000.0001)                 3.250514741070222E+04,      /* J =  8 */
(PID.TID 0000.0001)                 3.435572865744784E+04,      /* J =  9 */
(PID.TID 0000.0001)                 3.619584481643300E+04,      /* J = 10 */
(PID.TID 0000.0001)                 3.802493537045003E+04,      /* J = 11 */
(PID.TID 0000.0001)                 3.984244316079742E+04,      /* J = 12 */
(PID.TID 0000.0001)                 4.164781455699558E+04,      /* J = 13 */
(PID.TID 0000.0001)                 4.344049962542827E+04,      /* J = 14 */
(PID.TID 0000.0001)                 4.521995229685750E+04,      /* J = 15 */
(PID.TID 0000.0001)                 4.698563053276157E+04,      /* J = 16 */
(PID.TID 0000.0001)                 4.873699649044534E+04,      /* J = 17 */
(PID.TID 0000.0001)                 5.047351668687224E+04,      /* J = 18 */
(PID.TID 0000.0001)                 5.219466216116839E+04,      /* J = 19 */
(PID.TID 0000.0001)                 5.389990863574919E+04       /* J = 20 */
(PID.TID 0000.0001)     ;
(PID.TID 0000.0001) dyG =  /* dyG(:,1,:,1) ( units: m ) */
(PID.TID 0000.0001)    20 @  1.111774733520388E+05              /* I =  1: 20 */
(PID.TID 0000.0001)     ;
(PID.TID 0000.0001) dyG =  /* dyG(1,:,1,:) ( units: m ) */
(PID.TID 0000.0001)    20 @  1.111774733520388E+05              /* J =  1: 20 */
(PID.TID 0000.0001)     ;
(PID.TID 0000.0001) dxC =  /* dxC(:,1,:,1) ( units: m ) */
(PID.TID 0000.0001)    20 @  2.026048527919801E+04              /* I =  1: 20 */
(PID.TID 0000.0001)     ;
(PID.TID 0000.0001) dxC =  /* dxC(1,:,1,:) ( units: m ) */
(PID.TID 0000.0001)                 2.026048527919801E+04,      /* J =  1 */
(PID.TID 0000.0001)                 2.216522321591896E+04,      /* J =  2 */
(PID.TID 0000.0001)                 2.406320941092900E+04,      /* J =  3 */
(PID.TID 0000.0001)                 2.595386571924693E+04,      /* J =  4 */
(PID.TID 0000.0001)                 2.783661622864603E+04,      /* J =  5 */
(PID.TID 0000.0001)                 2.971088743508253E+04,      /* J =  6 */
(PID.TID 0000.0001)                 3.157610841739049E+04,      /* J =  7 */
(PID.TID 0000.0001)                 3.343171101118984E+04,      /* J =  8 */
(PID.TID 0000.0001)                 3.527712998195495E+04,      /* J =  9 */
(PID.TID 0000.0001)                 3.711180319719033E+04,      /* J = 10 */
(PID.TID 0000.0001)                 3.893517179766173E+04,      /* J = 11 */
(PID.TID 0000.0001)                 4.074668036763009E+04,      /* J = 12 */
(PID.TID 0000.0001)                 4.254577710403652E+04,      /* J = 13 */
(PID.TID 0000.0001)                 4.433191398458684E+04,      /* J = 14 */
(PID.TID 0000.0001)                 4.610454693468459E+04,      /* J = 15 */
(PID.TID 0000.0001)                 4.786313599316124E+04,      /* J = 16 */
(PID.TID 0000.0001)                 4.960714547675374E+04,      /* J = 17 */
(PID.TID 0000.0001)                 5.133604414327884E+04,      /* J = 18 */
(PID.TID 0000.0001)                 5.304930535345447E+04,      /* J = 19 */
(PID.TID 0000.0001)                 5.474640723131929E+04       /* J = 20 */
(PID.TID 0000.0001)     ;
(PID.TID 0000.0001) dyC =  /* dyC(:,1,:,1) ( units: m ) */
(PID.TID 0000.0001)    20 @  1.111774733520388E+05              /* I =  1: 20 */
(PID.TID 0000.0001)     ;
(PID.TID 0000.0001) dyC =  /* dyC(1,:,1,:) ( units: m ) */
(PID.TID 0000.0001)    20 @  1.111774733520388E+05              /* J =  1: 20 */
(PID.TID 0000.0001)     ;
(PID.TID 0000.0001) dxV =  /* dxV(:,1,:,1) ( units: m ) */
(PID.TID 0000.0001)    20 @  1.930576564519525E+04              /* I =  1: 20 */
(PID.TID 0000.0001)     ;
(PID.TID 0000.0001) dxV =  /* dxV(1,:,1,:) ( units: m ) */
(PID.TID 0000.0001)                 1.930576564519525E+04,      /* J =  1 */
(PID.TID 0000.0001)                 2.121366199880512E+04,      /* J =  2 */
(PID.TID 0000.0001)                 2.311509646546878E+04,      /* J =  3 */
(PID.TID 0000.0001)                 2.500948984982807E+04,      /* J =  4 */
(PID.TID 0000.0001)                 2.689626510130676E+04,      /* J =  5 */
(PID.TID 0000.0001)                 2.877484748988563E+04,      /* J =  6 */
(PID.TID 0000.0001)                 3.064466478117086E+04,      /* J =  7 */
(PID.TID 0000.0001)                 3.250514741070222E+04,      /* J =  8 */
(PID.TID 0000.0001)                 3.435572865744784E+04,      /* J =  9 */
(PID.TID 0000.0001)                 3.619584481643300E+04,      /* J = 10 */
(PID.TID 0000.0001)                 3.802493537045003E+04,      /* J = 11 */
(PID.TID 0000.0001)                 3.984244316079742E+04,      /* J = 12 */
(PID.TID 0000.0001)                 4.164781455699558E+04,      /* J = 13 */
(PID.TID 0000.0001)                 4.344049962542827E+04,      /* J = 14 */
(PID.TID 0000.0001)                 4.521995229685750E+04,      /* J = 15 */
(PID.TID 0000.0001)                 4.698563053276157E+04,      /* J = 16 */
(PID.TID 0000.0001)                 4.873699649044534E+04,      /* J = 17 */
(PID.TID 0000.0001)                 5.047351668687224E+04,      /* J = 18 */
(PID.TID 0000.0001)                 5.219466216116839E+04,      /* J = 19 */
(PID.TID 0000.0001)                 5.389990863574919E+04       /* J = 20 */
(PID.TID 0000.0001)     ;
(PID.TID 0000.0001) dyU =  /* dyU(:,1,:,1) ( units: m ) */
(PID.TID 0000.0001)    20 @  1.111774733520388E+05              /* I =  1: 20 */
(PID.TID 0000.0001)     ;
(PID.TID 0000.0001) dyU =  /* dyU(1,:,1,:) ( units: m ) */
(PID.TID 0000.0001)    20 @  1.111774733520388E+05              /* J =  1: 20 */
(PID.TID 0000.0001)     ;
(PID.TID 0000.0001) rA  =  /* rA (:,1,:,1) ( units: m^2 ) */
(PID.TID 0000.0001)    20 @  2.252480972600775E+09              /* I =  1: 20 */
(PID.TID 0000.0001)     ;
(PID.TID 0000.0001) rA  =  /* rA (1,:,1,:) ( units: m^2 ) */
(PID.TID 0000.0001)                 2.252480972600775E+09,      /* J =  1 */
(PID.TID 0000.0001)                 2.464242236022337E+09,      /* J =  2 */
(PID.TID 0000.0001)                 2.675252867386942E+09,      /* J =  3 */
(PID.TID 0000.0001)                 2.885448590812564E+09,      /* J =  4 */
(PID.TID 0000.0001)                 3.094765378645360E+09,      /* J =  5 */
(PID.TID 0000.0001)                 3.303139470964198E+09,      /* J =  6 */
(PID.TID 0000.0001)                 3.510507395001996E+09,      /* J =  7 */
(PID.TID 0000.0001)                 3.716805984480110E+09,      /* J =  8 */
(PID.TID 0000.0001)                 3.921972398849929E+09,      /* J =  9 */
(PID.TID 0000.0001)                 4.125944142434001E+09,      /* J = 10 */
(PID.TID 0000.0001)                 4.328659083463362E+09,      /* J = 11 */
(PID.TID 0000.0001)                 4.530055473003297E+09,      /* J = 12 */
(PID.TID 0000.0001)                 4.730071963762505E+09,      /* J = 13 */
(PID.TID 0000.0001)                 4.928647628780381E+09,      /* J = 14 */
(PID.TID 0000.0001)                 5.125721979985523E+09,      /* J = 15 */
(PID.TID 0000.0001)                 5.321234986621584E+09,      /* J = 16 */
(PID.TID 0000.0001)                 5.515127093532944E+09,      /* J = 17 */
(PID.TID 0000.0001)                 5.707339239305150E+09,      /* J = 18 */
(PID.TID 0000.0001)                 5.897812874256923E+09,      /* J = 19 */
(PID.TID 0000.0001)                 6.086489978273794E+09       /* J = 20 */
(PID.TID 0000.0001)     ;
(PID.TID 0000.0001) rAw =  /* rAw(:,1,:,1) ( units: m^2 ) */
(PID.TID 0000.0001)    20 @  2.252480972600775E+09              /* I =  1: 20 */
(PID.TID 0000.0001)     ;
(PID.TID 0000.0001) rAw =  /* rAw(1,:,1,:) ( units: m^2 ) */
(PID.TID 0000.0001)                 2.252480972600775E+09,      /* J =  1 */
(PID.TID 0000.0001)                 2.464242236022337E+09,      /* J =  2 */
(PID.TID 0000.0001)                 2.675252867386942E+09,      /* J =  3 */
(PID.TID 0000.0001)                 2.885448590812564E+09,      /* J =  4 */
(PID.TID 0000.0001)                 3.094765378645360E+09,      /* J =  5 */
(PID.TID 0000.0001)                 3.303139470964198E+09,      /* J =  6 */
(PID.TID 0000.0001)                 3.510507395001996E+09,      /* J =  7 */
(PID.TID 0000.0001)                 3.716805984480110E+09,      /* J =  8 */
(PID.TID 0000.0001)                 3.921972398849929E+09,      /* J =  9 */
(PID.TID 0000.0001)                 4.125944142434001E+09,      /* J = 10 */
(PID.TID 0000.0001)                 4.328659083463362E+09,      /* J = 11 */
(PID.TID 0000.0001)                 4.530055473003297E+09,      /* J = 12 */
(PID.TID 0000.0001)                 4.730071963762505E+09,      /* J = 13 */
(PID.TID 0000.0001)                 4.928647628780381E+09,      /* J = 14 */
(PID.TID 0000.0001)                 5.125721979985523E+09,      /* J = 15 */
(PID.TID 0000.0001)                 5.321234986621584E+09,      /* J = 16 */
(PID.TID 0000.0001)                 5.515127093532944E+09,      /* J = 17 */
(PID.TID 0000.0001)                 5.707339239305150E+09,      /* J = 18 */
(PID.TID 0000.0001)                 5.897812874256923E+09,      /* J = 19 */
(PID.TID 0000.0001)                 6.086489978273794E+09       /* J = 20 */
(PID.TID 0000.0001)     ;
(PID.TID 0000.0001) rAs =  /* rAs(:,1,:,1) ( units: m^2 ) */
(PID.TID 0000.0001)    20 @  2.146339003140312E+09              /* I =  1: 20 */
(PID.TID 0000.0001)     ;
(PID.TID 0000.0001) rAs =  /* rAs(1,:,1,:) ( units: m^2 ) */
(PID.TID 0000.0001)                 2.146339003140312E+09,      /* J =  1 */
(PID.TID 0000.0001)                 2.358451406914464E+09,      /* J =  2 */
(PID.TID 0000.0001)                 2.569845403543145E+09,      /* J =  3 */
(PID.TID 0000.0001)                 2.780456600367350E+09,      /* J =  4 */
(PID.TID 0000.0001)                 2.990220843176115E+09,      /* J =  5 */
(PID.TID 0000.0001)                 3.199074235749182E+09,      /* J =  6 */
(PID.TID 0000.0001)                 3.406953159319860E+09,      /* J =  7 */
(PID.TID 0000.0001)                 3.613794291954373E+09,      /* J =  8 */
(PID.TID 0000.0001)                 3.819534627839939E+09,      /* J =  9 */
(PID.TID 0000.0001)                 4.024111496477147E+09,      /* J = 10 */
(PID.TID 0000.0001)                 4.227462581770208E+09,      /* J = 11 */
(PID.TID 0000.0001)                 4.429525941008306E+09,      /* J = 12 */
(PID.TID 0000.0001)                 4.630240023735217E+09,      /* J = 13 */
(PID.TID 0000.0001)                 4.829543690496597E+09,      /* J = 14 */
(PID.TID 0000.0001)                 5.027376231465073E+09,      /* J = 15 */
(PID.TID 0000.0001)                 5.223677384932224E+09,      /* J = 16 */
(PID.TID 0000.0001)                 5.418387355664783E+09,      /* J = 17 */
(PID.TID 0000.0001)                 5.611446833120007E+09,      /* J = 18 */
(PID.TID 0000.0001)                 5.802797009510403E+09,      /* J = 19 */
(PID.TID 0000.0001)                 5.992379597718760E+09       /* J = 20 */
(PID.TID 0000.0001)     ;
(PID.TID 0000.0001) globalArea = /* Integrated horizontal Area (m^2) */
(PID.TID 0000.0001)                 3.463878365678419E+14
(PID.TID 0000.0001)     ;
(PID.TID 0000.0001) // =======================================================
(PID.TID 0000.0001) // End of Model config. summary
(PID.TID 0000.0001) // =======================================================
(PID.TID 0000.0001) 
(PID.TID 0000.0001) == Packages configuration : Check & print summary ==
(PID.TID 0000.0001) 
(PID.TID 0000.0001) KPP_CHECK: #define ALLOW_KPP
(PID.TID 0000.0001)  kpp_freq = /* frequency of KPP calculation */
(PID.TID 0000.0001)                 3.600000000000000E+03
(PID.TID 0000.0001)     ;
(PID.TID 0000.0001) KPP_ghatUseTotalDiffus= /* non-local term fct of total diffus */
(PID.TID 0000.0001)                   F
(PID.TID 0000.0001)     ;
(PID.TID 0000.0001) KPPuseDoubleDiff = /* include double diffusive contrib */
(PID.TID 0000.0001)                   F
(PID.TID 0000.0001)     ;
(PID.TID 0000.0001) LimitHblStable = /* limits depth of hbl if stable cond.*/
(PID.TID 0000.0001)                   T
(PID.TID 0000.0001)     ;
(PID.TID 0000.0001)  minKPPhbl = /* minimum KPPhbl value [m] */
(PID.TID 0000.0001)                 5.000000000000000E+00
(PID.TID 0000.0001)     ;
(PID.TID 0000.0001)  epsln     = /* constant [-] */
(PID.TID 0000.0001)                 9.999999999999999E-21
(PID.TID 0000.0001)     ;
(PID.TID 0000.0001)  phepsi    = /* constant [-] */
(PID.TID 0000.0001)                 1.000000000000000E-10
(PID.TID 0000.0001)     ;
(PID.TID 0000.0001)  epsilon   = /* constant [-] */
(PID.TID 0000.0001)                 1.000000000000000E-01
(PID.TID 0000.0001)     ;
(PID.TID 0000.0001)  vonk      = /* Von Karmans constant [-] */
(PID.TID 0000.0001)                 4.000000000000000E-01
(PID.TID 0000.0001)     ;
(PID.TID 0000.0001)  dB_dz     = /* maximum N^2 in mixed layer [s^-2] */
(PID.TID 0000.0001)                 5.200000000000000E-05
(PID.TID 0000.0001)     ;
(PID.TID 0000.0001)  conc1     = /* scalar constant [-] */
(PID.TID 0000.0001)                 5.000000000000000E+00
(PID.TID 0000.0001)     ;
(PID.TID 0000.0001)  conam     = /* scalar constant [-] */
(PID.TID 0000.0001)                 1.257000000000000E+00
(PID.TID 0000.0001)     ;
(PID.TID 0000.0001)  concm     = /* scalar constant [-] */
(PID.TID 0000.0001)                 8.380000000000001E+00
(PID.TID 0000.0001)     ;
(PID.TID 0000.0001)  conc2     = /* scalar constant [-] */
(PID.TID 0000.0001)                 1.600000000000000E+01
(PID.TID 0000.0001)     ;
(PID.TID 0000.0001)  conas     = /* scalar constant [-] */
(PID.TID 0000.0001)                -2.886000000000000E+01
(PID.TID 0000.0001)     ;
(PID.TID 0000.0001)  concs     = /* scalar constant [-] */
(PID.TID 0000.0001)                 9.895999999999999E+01
(PID.TID 0000.0001)     ;
(PID.TID 0000.0001)  conc3     = /* scalar constant [-] */
(PID.TID 0000.0001)                 1.600000000000000E+01
(PID.TID 0000.0001)     ;
(PID.TID 0000.0001)  zetam     = /* scalar constant [-] */
(PID.TID 0000.0001)                -2.000000000000000E-01
(PID.TID 0000.0001)     ;
(PID.TID 0000.0001)  zetas     = /* scalar constant [-] */
(PID.TID 0000.0001)                -1.000000000000000E+00
(PID.TID 0000.0001)     ;
(PID.TID 0000.0001)  Ricr      = /* critical bulk Richardson Number [-] */
(PID.TID 0000.0001)                 3.000000000000000E-01
(PID.TID 0000.0001)     ;
(PID.TID 0000.0001)  cekman    = /* coeff for Ekman depth [-] */
(PID.TID 0000.0001)                 7.000000000000000E-01
(PID.TID 0000.0001)     ;
(PID.TID 0000.0001)  cmonob    = /* coeff for Monin-Obukhov depth [-] */
(PID.TID 0000.0001)                 1.000000000000000E+00
(PID.TID 0000.0001)     ;
(PID.TID 0000.0001)  concv     = /* buoyancy freq ratio [-] */
(PID.TID 0000.0001)                 1.800000000000000E+00
(PID.TID 0000.0001)     ;
(PID.TID 0000.0001)  hbf       = /* solar radiation depth ratio [-] */
(PID.TID 0000.0001)                 1.000000000000000E+00
(PID.TID 0000.0001)     ;
(PID.TID 0000.0001)  zmin      = /* minimum for zehat in table [m3/s3] */
(PID.TID 0000.0001)                -4.000000000000000E-07
(PID.TID 0000.0001)     ;
(PID.TID 0000.0001)  zmax      = /* maximum for zehat in table [m3/s3] */
(PID.TID 0000.0001)                 0.000000000000000E+00
(PID.TID 0000.0001)     ;
(PID.TID 0000.0001)  umin      = /* minimum for ustar in table [m/s] */
(PID.TID 0000.0001)                 0.000000000000000E+00
(PID.TID 0000.0001)     ;
(PID.TID 0000.0001)  umax      = /* maximum for ustar in table [m/s] */
(PID.TID 0000.0001)                 4.000000000000000E-02
(PID.TID 0000.0001)     ;
(PID.TID 0000.0001) num_v_smooth_Ri = /* number of vertical smoothing */
(PID.TID 0000.0001)                       0
(PID.TID 0000.0001)     ;
(PID.TID 0000.0001)  Riinfty   = /* shear instability Ri number limit [-] */
(PID.TID 0000.0001)                 7.000000000000000E-01
(PID.TID 0000.0001)     ;
(PID.TID 0000.0001)  BVSQcon   = /* Brunt-Vaisala squared (=N^2) [s^-2] */
(PID.TID 0000.0001)                -2.000000000000000E-05
(PID.TID 0000.0001)     ;
(PID.TID 0000.0001)  difm0     = /* max viscosity from shear instab. [m2/s] */
(PID.TID 0000.0001)                 5.000000000000000E-03
(PID.TID 0000.0001)     ;
(PID.TID 0000.0001)  difs0     = /* max diffusiv. from shear instab. [m2/s] */
(PID.TID 0000.0001)                 5.000000000000000E-03
(PID.TID 0000.0001)     ;
(PID.TID 0000.0001)  dift0     = /* max diffusiv. from shear instab. [m2/s] */
(PID.TID 0000.0001)                 5.000000000000000E-03
(PID.TID 0000.0001)     ;
(PID.TID 0000.0001)  difmcon   = /* convective viscosity [m2/s] */
(PID.TID 0000.0001)                 1.000000000000000E-01
(PID.TID 0000.0001)     ;
(PID.TID 0000.0001)  difscon   = /* convective diffusiv. [m2/s] */
(PID.TID 0000.0001)                 1.000000000000000E-01
(PID.TID 0000.0001)     ;
(PID.TID 0000.0001)  diftcon   = /* convective diffusiv. [m2/s] */
(PID.TID 0000.0001)                 1.000000000000000E-01
(PID.TID 0000.0001)     ;
(PID.TID 0000.0001)  Rrho0     = /* double diffusion density ratio [-] */
(PID.TID 0000.0001)                 1.900000000000000E+00
(PID.TID 0000.0001)     ;
(PID.TID 0000.0001)  dsfmax    = /* max diffusiv. for salt fingering [m2/s] */
(PID.TID 0000.0001)                 1.000000000000000E-02
(PID.TID 0000.0001)     ;
(PID.TID 0000.0001)  cstar     = /* coeff for non-locak transport [-] */
(PID.TID 0000.0001)                 1.000000000000000E+01
(PID.TID 0000.0001)     ;
(PID.TID 0000.0001) KPPwriteState = /* write KPP fields to file */
(PID.TID 0000.0001)                   F
(PID.TID 0000.0001)     ;
(PID.TID 0000.0001)  kpp_dumpFreq = /* dump freq of KPP output */
(PID.TID 0000.0001)                 0.000000000000000E+00
(PID.TID 0000.0001)     ;
(PID.TID 0000.0001)  kpp_taveFreq = /* time-averaging freq of KPP output */
(PID.TID 0000.0001)                 0.000000000000000E+00
(PID.TID 0000.0001)     ;
(PID.TID 0000.0001) 
(PID.TID 0000.0001) GMREDI_CHECK: #define GMREDI
(PID.TID 0000.0001) GM_AdvForm =     /* if FALSE => use SkewFlux Form */
(PID.TID 0000.0001)                   F
(PID.TID 0000.0001)     ;
(PID.TID 0000.0001) GM_InMomAsStress = /* if TRUE => apply as Eddy Stress */
(PID.TID 0000.0001)                   F
(PID.TID 0000.0001)     ;
(PID.TID 0000.0001) GM_AdvSeparate = /* Calc Bolus & Euler Adv. separately */
(PID.TID 0000.0001)                   F
(PID.TID 0000.0001)     ;
(PID.TID 0000.0001) GM_ExtraDiag =   /* Tensor Extra Diag (line 1&2) non 0 */
(PID.TID 0000.0001)                   F
(PID.TID 0000.0001)     ;
(PID.TID 0000.0001) GM_isopycK =    /* Background Isopyc. Diffusivity [m^2/s] */
(PID.TID 0000.0001)                 1.000000000000000E+03
(PID.TID 0000.0001)     ;
(PID.TID 0000.0001) GM_skewflx*K =  /* Background GM_SkewFlx Diffusivity [m^2/s] */
(PID.TID 0000.0001)                 1.000000000000000E+03
(PID.TID 0000.0001)     ;
(PID.TID 0000.0001) GM_advec*K =    /* Backg. GM-Advec(=Bolus) Diffusivity [m^2/s]*/
(PID.TID 0000.0001)                 0.000000000000000E+00
(PID.TID 0000.0001)     ;
(PID.TID 0000.0001) GM_Kmin_horiz = /* Minimum Horizontal Diffusivity [m^2/s] */
(PID.TID 0000.0001)                 5.000000000000000E+01
(PID.TID 0000.0001)     ;
(PID.TID 0000.0001) GM_Visbeck_alpha = /* Visbeck alpha coeff. [-] */
(PID.TID 0000.0001)                 0.000000000000000E+00
(PID.TID 0000.0001)     ;
(PID.TID 0000.0001) GM_Small_Number =  /* epsilon used in slope calc */
(PID.TID 0000.0001)                 9.999999999999999E-21
(PID.TID 0000.0001)     ;
(PID.TID 0000.0001) GM_slopeSqCutoff = /* Slope^2 cut-off value */
(PID.TID 0000.0001)                 1.000000000000000E+08
(PID.TID 0000.0001)     ;
(PID.TID 0000.0001) GM_taper_scheme =  /* Type of Tapering/Clipping scheme */
(PID.TID 0000.0001)               'dm95                                    '
(PID.TID 0000.0001)     ;
(PID.TID 0000.0001) GM_maxSlope =  /* Maximum Slope (Tapering/Clipping) */
(PID.TID 0000.0001)                 1.000000000000000E-02
(PID.TID 0000.0001)     ;
(PID.TID 0000.0001) GM_facTrL2dz = /* Minimum Trans.Layer Thick. (factor of dz) */
(PID.TID 0000.0001)                 1.000000000000000E+00
(PID.TID 0000.0001)     ;
(PID.TID 0000.0001) GM_facTrL2ML = /* Max.Trans.Layer Thick. (factor of MxL Depth)*/
(PID.TID 0000.0001)                 5.000000000000000E+00
(PID.TID 0000.0001)     ;
(PID.TID 0000.0001) GM_maxTransLay = /* Maximum Transition Layer Thickness [m] */
(PID.TID 0000.0001)                 5.000000000000000E+02
(PID.TID 0000.0001)     ;
(PID.TID 0000.0001) GM_UseBVP = /* if TRUE => use bvp a la Ferrari et al. (2010) */
(PID.TID 0000.0001)                   F
(PID.TID 0000.0001)     ;
(PID.TID 0000.0001) GM_BVP_ModeNumber = /* Vertical mode number for BVP wave speed */
(PID.TID 0000.0001)                       1
(PID.TID 0000.0001)     ;
(PID.TID 0000.0001) GM_BVP_cMin = /* Minimum wave speed for BVP [m/s] */
(PID.TID 0000.0001)                 1.000000000000000E-01
(PID.TID 0000.0001)     ;
(PID.TID 0000.0001) GM_useSubMeso = /* if TRUE => use Sub-Meso param. (B.Fox-Kemper) */
(PID.TID 0000.0001)                   F
(PID.TID 0000.0001)     ;
(PID.TID 0000.0001) subMeso_Ceff = /* efficiency coeff. of Mixed-Layer Eddies [-] */
(PID.TID 0000.0001)                 7.000000000000001E-02
(PID.TID 0000.0001)     ;
(PID.TID 0000.0001) subMeso_invTau = /* inverse of Sub-Meso mixing time-scale [/s] */
(PID.TID 0000.0001)                 2.000000000000000E-06
(PID.TID 0000.0001)     ;
(PID.TID 0000.0001) subMeso_LfMin = /* minimum length-scale "Lf" [m] */
(PID.TID 0000.0001)                 1.000000000000000E+03
(PID.TID 0000.0001)     ;
(PID.TID 0000.0001) subMeso_Lmax = /* maximum grid-scale length [m] */
(PID.TID 0000.0001)                 1.100000000000000E+05
(PID.TID 0000.0001)     ;
(PID.TID 0000.0001) GM_useLeithQG = /* if TRUE => add QG Leith viscosity to GMRedi tensor */
(PID.TID 0000.0001)                   F
(PID.TID 0000.0001)     ;
(PID.TID 0000.0001) EXF_CHECK: #define ALLOW_EXF
(PID.TID 0000.0001) RADTRANS_CHECK:
(PID.TID 0000.0001) RADTRANS_CHECK: wavebands:
(PID.TID 0000.0001) RADTRANS_CHECK:  idx       low   rep      high    width
(PID.TID 0000.0001) RADTRANS_CHECK:    1   400.000  400.   412.500   12.500
(PID.TID 0000.0001) RADTRANS_CHECK:    2   412.500  425.   437.500   25.000
(PID.TID 0000.0001) RADTRANS_CHECK:    3   437.500  450.   462.500   25.000
(PID.TID 0000.0001) RADTRANS_CHECK:    4   462.500  475.   487.500   25.000
(PID.TID 0000.0001) RADTRANS_CHECK:    5   487.500  500.   512.500   25.000
(PID.TID 0000.0001) RADTRANS_CHECK:    6   512.500  525.   537.500   25.000
(PID.TID 0000.0001) RADTRANS_CHECK:    7   537.500  550.   562.500   25.000
(PID.TID 0000.0001) RADTRANS_CHECK:    8   562.500  575.   587.500   25.000
(PID.TID 0000.0001) RADTRANS_CHECK:    9   587.500  600.   612.500   25.000
(PID.TID 0000.0001) RADTRANS_CHECK:   10   612.500  625.   637.500   25.000
(PID.TID 0000.0001) RADTRANS_CHECK:   11   637.500  650.   662.500   25.000
(PID.TID 0000.0001) RADTRANS_CHECK:   12   662.500  675.   687.500   25.000
(PID.TID 0000.0001) RADTRANS_CHECK:   13   687.500  700.   700.000   12.500
(PID.TID 0000.0001) RADTRANS_CHECK:
(PID.TID 0000.0001)  ===================================
(PID.TID 0000.0001) PTRACERS_CHECK: #define ALLOW_PTRACERS
(PID.TID 0000.0001) // ===================================
(PID.TID 0000.0001) // PTRACERS parameters
(PID.TID 0000.0001) // ===================================
(PID.TID 0000.0001) PTRACERS_numInUse = /* number of tracers */
(PID.TID 0000.0001)                      36
(PID.TID 0000.0001)     ;
(PID.TID 0000.0001) PTRACERS_Iter0 = /* timestep number when tracers are initialized */
(PID.TID 0000.0001)                       0
(PID.TID 0000.0001)     ;
(PID.TID 0000.0001) PTRACERS_startAllTrc =/* all tracers start @ startTime */
(PID.TID 0000.0001)                   T
(PID.TID 0000.0001)     ;
(PID.TID 0000.0001) PTRACERS_doAB_onGpTr =/* apply AB on Tendencies (rather than on Tracers) */
(PID.TID 0000.0001)                   T
(PID.TID 0000.0001)     ;
(PID.TID 0000.0001) PTRACERS_addSrelax2EmP =/* add Salt relaxation to EmP */
(PID.TID 0000.0001)                   F
(PID.TID 0000.0001)     ;
(PID.TID 0000.0001) PTRACERS_dTLev =   /* Ptracer timestep ( s ) */
(PID.TID 0000.0001)    23 @  3.600000000000000E+03              /* K =  1: 23 */
(PID.TID 0000.0001)     ;
(PID.TID 0000.0001) PTRACERS_monitorFreq = /* Frequency^-1 for monitor output (s) */
(PID.TID 0000.0001)                 1.000000000000000E+00
(PID.TID 0000.0001)     ;
(PID.TID 0000.0001) PTRACERS_dumpFreq = /* Frequency^-1 for snapshot output (s) */
(PID.TID 0000.0001)                 0.000000000000000E+00
(PID.TID 0000.0001)     ;
(PID.TID 0000.0001) PTRACERS_taveFreq = /* Frequency^-1 for time-Aver. output (s) */
(PID.TID 0000.0001)                 0.000000000000000E+00
(PID.TID 0000.0001)     ;
(PID.TID 0000.0001) PTRACERS_useRecords = /* all tracers in 1 file */
(PID.TID 0000.0001)                   F
(PID.TID 0000.0001)     ;
(PID.TID 0000.0001) PTRACERS_timeave_mnc = /* use MNC for Tave output */
(PID.TID 0000.0001)                   T
(PID.TID 0000.0001)     ;
(PID.TID 0000.0001) PTRACERS_snapshot_mnc = /* use MNC for snapshot output */
(PID.TID 0000.0001)                   T
(PID.TID 0000.0001)     ;
(PID.TID 0000.0001) PTRACERS_pickup_write_mnc = /* use MNC for writing pickups */
(PID.TID 0000.0001)                   F
(PID.TID 0000.0001)     ;
(PID.TID 0000.0001) PTRACERS_pickup_read_mnc = /* use MNC for reading pickups */
(PID.TID 0000.0001)                   F
(PID.TID 0000.0001)     ;
(PID.TID 0000.0001)  -----------------------------------
(PID.TID 0000.0001)  tracer number :    1
(PID.TID 0000.0001) PTRACERS_names = /* Tracer short name */
(PID.TID 0000.0001)               'DIC'
(PID.TID 0000.0001)     ;
(PID.TID 0000.0001) PTRACERS_long_names = /* Tracer long name */
(PID.TID 0000.0001)               ''
(PID.TID 0000.0001)     ;
(PID.TID 0000.0001) PTRACERS_ioLabel = /* tracer IO Label */
(PID.TID 0000.0001)               '01'
(PID.TID 0000.0001)     ;
(PID.TID 0000.0001) PTRACERS_advScheme = /* Advection Scheme */
(PID.TID 0000.0001)                      33
(PID.TID 0000.0001)     ;
(PID.TID 0000.0001) PTRACERS_SOM_Advection = /* tracer uses SOM advection scheme */
(PID.TID 0000.0001)                   F
(PID.TID 0000.0001)     ;
(PID.TID 0000.0001) PTRACERS_ImplVertAdv = /* implicit vert. advection flag */
(PID.TID 0000.0001)                   F
(PID.TID 0000.0001)     ;
(PID.TID 0000.0001) PTRACERS_MultiDimAdv = /* tracer uses Multi-Dim advection */
(PID.TID 0000.0001)                   T
(PID.TID 0000.0001)     ;
(PID.TID 0000.0001) PTRACERS_AdamsBashGtr = /* apply AB on tracer tendency */
(PID.TID 0000.0001)                   F
(PID.TID 0000.0001)     ;
(PID.TID 0000.0001) PTRACERS_AdamsBash_Tr = /* apply AB on passive tracer */
(PID.TID 0000.0001)                   F
(PID.TID 0000.0001)     ;
(PID.TID 0000.0001) PTRACERS_diffKh = /* Laplacian Diffusivity */
(PID.TID 0000.0001)                 0.000000000000000E+00
(PID.TID 0000.0001)     ;
(PID.TID 0000.0001) PTRACERS_diffK4 = /* Biharmonic Diffusivity */
(PID.TID 0000.0001)                 0.000000000000000E+00
(PID.TID 0000.0001)     ;
(PID.TID 0000.0001) PTRACERS_diffKrNr = /* Vertical Diffusivity */
(PID.TID 0000.0001)    23 @  1.000000000000000E-05              /* K =  1: 23 */
(PID.TID 0000.0001)     ;
(PID.TID 0000.0001) PTRACERS_useGMRedi = /* apply GM-Redi */
(PID.TID 0000.0001)                   T
(PID.TID 0000.0001)     ;
(PID.TID 0000.0001) PTRACERS_useDWNSLP = /* apply DOWN-SLOPE Flow */
(PID.TID 0000.0001)                   F
(PID.TID 0000.0001)     ;
(PID.TID 0000.0001) PTRACERS_useKPP = /* apply KPP scheme */
(PID.TID 0000.0001)                   T
(PID.TID 0000.0001)     ;
(PID.TID 0000.0001) PTRACERS_stayPositive = /* use Smolarkiewicz Hack for this tracer */
(PID.TID 0000.0001)                   T
(PID.TID 0000.0001)     ;
(PID.TID 0000.0001) PTRACERS_ref = /* Reference vertical profile */
(PID.TID 0000.0001)    23 @  0.000000000000000E+00              /* K =  1: 23 */
(PID.TID 0000.0001)     ;
(PID.TID 0000.0001) PTRACERS_EvPrRn =/* tracer conc. in Evap. & Rain */
(PID.TID 0000.0001)                 1.234567000000000E+05
(PID.TID 0000.0001)     ;
(PID.TID 0000.0001)  -----------------------------------
(PID.TID 0000.0001)  tracer number :    2
(PID.TID 0000.0001) PTRACERS_names = /* Tracer short name */
(PID.TID 0000.0001)               'NO3'
(PID.TID 0000.0001)     ;
(PID.TID 0000.0001) PTRACERS_long_names = /* Tracer long name */
(PID.TID 0000.0001)               ''
(PID.TID 0000.0001)     ;
(PID.TID 0000.0001) PTRACERS_ioLabel = /* tracer IO Label */
(PID.TID 0000.0001)               '02'
(PID.TID 0000.0001)     ;
(PID.TID 0000.0001) PTRACERS_advScheme = /* Advection Scheme */
(PID.TID 0000.0001)                      33
(PID.TID 0000.0001)     ;
(PID.TID 0000.0001) PTRACERS_SOM_Advection = /* tracer uses SOM advection scheme */
(PID.TID 0000.0001)                   F
(PID.TID 0000.0001)     ;
(PID.TID 0000.0001) PTRACERS_ImplVertAdv = /* implicit vert. advection flag */
(PID.TID 0000.0001)                   F
(PID.TID 0000.0001)     ;
(PID.TID 0000.0001) PTRACERS_MultiDimAdv = /* tracer uses Multi-Dim advection */
(PID.TID 0000.0001)                   T
(PID.TID 0000.0001)     ;
(PID.TID 0000.0001) PTRACERS_AdamsBashGtr = /* apply AB on tracer tendency */
(PID.TID 0000.0001)                   F
(PID.TID 0000.0001)     ;
(PID.TID 0000.0001) PTRACERS_AdamsBash_Tr = /* apply AB on passive tracer */
(PID.TID 0000.0001)                   F
(PID.TID 0000.0001)     ;
(PID.TID 0000.0001) PTRACERS_diffKh = /* Laplacian Diffusivity */
(PID.TID 0000.0001)                 0.000000000000000E+00
(PID.TID 0000.0001)     ;
(PID.TID 0000.0001) PTRACERS_diffK4 = /* Biharmonic Diffusivity */
(PID.TID 0000.0001)                 0.000000000000000E+00
(PID.TID 0000.0001)     ;
(PID.TID 0000.0001) PTRACERS_diffKrNr = /* Vertical Diffusivity */
(PID.TID 0000.0001)    23 @  1.000000000000000E-05              /* K =  1: 23 */
(PID.TID 0000.0001)     ;
(PID.TID 0000.0001) PTRACERS_useGMRedi = /* apply GM-Redi */
(PID.TID 0000.0001)                   T
(PID.TID 0000.0001)     ;
(PID.TID 0000.0001) PTRACERS_useDWNSLP = /* apply DOWN-SLOPE Flow */
(PID.TID 0000.0001)                   F
(PID.TID 0000.0001)     ;
(PID.TID 0000.0001) PTRACERS_useKPP = /* apply KPP scheme */
(PID.TID 0000.0001)                   T
(PID.TID 0000.0001)     ;
(PID.TID 0000.0001) PTRACERS_stayPositive = /* use Smolarkiewicz Hack for this tracer */
(PID.TID 0000.0001)                   T
(PID.TID 0000.0001)     ;
(PID.TID 0000.0001) PTRACERS_ref = /* Reference vertical profile */
(PID.TID 0000.0001)    23 @  0.000000000000000E+00              /* K =  1: 23 */
(PID.TID 0000.0001)     ;
(PID.TID 0000.0001) PTRACERS_EvPrRn =/* tracer conc. in Evap. & Rain */
(PID.TID 0000.0001)                 1.234567000000000E+05
(PID.TID 0000.0001)     ;
(PID.TID 0000.0001)  -----------------------------------
(PID.TID 0000.0001)  tracer number :    3
(PID.TID 0000.0001) PTRACERS_names = /* Tracer short name */
(PID.TID 0000.0001)               'NO2'
(PID.TID 0000.0001)     ;
(PID.TID 0000.0001) PTRACERS_long_names = /* Tracer long name */
(PID.TID 0000.0001)               ''
(PID.TID 0000.0001)     ;
(PID.TID 0000.0001) PTRACERS_ioLabel = /* tracer IO Label */
(PID.TID 0000.0001)               '03'
(PID.TID 0000.0001)     ;
(PID.TID 0000.0001) PTRACERS_advScheme = /* Advection Scheme */
(PID.TID 0000.0001)                      33
(PID.TID 0000.0001)     ;
(PID.TID 0000.0001) PTRACERS_SOM_Advection = /* tracer uses SOM advection scheme */
(PID.TID 0000.0001)                   F
(PID.TID 0000.0001)     ;
(PID.TID 0000.0001) PTRACERS_ImplVertAdv = /* implicit vert. advection flag */
(PID.TID 0000.0001)                   F
(PID.TID 0000.0001)     ;
(PID.TID 0000.0001) PTRACERS_MultiDimAdv = /* tracer uses Multi-Dim advection */
(PID.TID 0000.0001)                   T
(PID.TID 0000.0001)     ;
(PID.TID 0000.0001) PTRACERS_AdamsBashGtr = /* apply AB on tracer tendency */
(PID.TID 0000.0001)                   F
(PID.TID 0000.0001)     ;
(PID.TID 0000.0001) PTRACERS_AdamsBash_Tr = /* apply AB on passive tracer */
(PID.TID 0000.0001)                   F
(PID.TID 0000.0001)     ;
(PID.TID 0000.0001) PTRACERS_diffKh = /* Laplacian Diffusivity */
(PID.TID 0000.0001)                 0.000000000000000E+00
(PID.TID 0000.0001)     ;
(PID.TID 0000.0001) PTRACERS_diffK4 = /* Biharmonic Diffusivity */
(PID.TID 0000.0001)                 0.000000000000000E+00
(PID.TID 0000.0001)     ;
(PID.TID 0000.0001) PTRACERS_diffKrNr = /* Vertical Diffusivity */
(PID.TID 0000.0001)    23 @  1.000000000000000E-05              /* K =  1: 23 */
(PID.TID 0000.0001)     ;
(PID.TID 0000.0001) PTRACERS_useGMRedi = /* apply GM-Redi */
(PID.TID 0000.0001)                   T
(PID.TID 0000.0001)     ;
(PID.TID 0000.0001) PTRACERS_useDWNSLP = /* apply DOWN-SLOPE Flow */
(PID.TID 0000.0001)                   F
(PID.TID 0000.0001)     ;
(PID.TID 0000.0001) PTRACERS_useKPP = /* apply KPP scheme */
(PID.TID 0000.0001)                   T
(PID.TID 0000.0001)     ;
(PID.TID 0000.0001) PTRACERS_stayPositive = /* use Smolarkiewicz Hack for this tracer */
(PID.TID 0000.0001)                   T
(PID.TID 0000.0001)     ;
(PID.TID 0000.0001) PTRACERS_ref = /* Reference vertical profile */
(PID.TID 0000.0001)    23 @  0.000000000000000E+00              /* K =  1: 23 */
(PID.TID 0000.0001)     ;
(PID.TID 0000.0001) PTRACERS_EvPrRn =/* tracer conc. in Evap. & Rain */
(PID.TID 0000.0001)                 1.234567000000000E+05
(PID.TID 0000.0001)     ;
(PID.TID 0000.0001)  -----------------------------------
(PID.TID 0000.0001)  tracer number :    4
(PID.TID 0000.0001) PTRACERS_names = /* Tracer short name */
(PID.TID 0000.0001)               'NH4'
(PID.TID 0000.0001)     ;
(PID.TID 0000.0001) PTRACERS_long_names = /* Tracer long name */
(PID.TID 0000.0001)               ''
(PID.TID 0000.0001)     ;
(PID.TID 0000.0001) PTRACERS_ioLabel = /* tracer IO Label */
(PID.TID 0000.0001)               '04'
(PID.TID 0000.0001)     ;
(PID.TID 0000.0001) PTRACERS_advScheme = /* Advection Scheme */
(PID.TID 0000.0001)                      33
(PID.TID 0000.0001)     ;
(PID.TID 0000.0001) PTRACERS_SOM_Advection = /* tracer uses SOM advection scheme */
(PID.TID 0000.0001)                   F
(PID.TID 0000.0001)     ;
(PID.TID 0000.0001) PTRACERS_ImplVertAdv = /* implicit vert. advection flag */
(PID.TID 0000.0001)                   F
(PID.TID 0000.0001)     ;
(PID.TID 0000.0001) PTRACERS_MultiDimAdv = /* tracer uses Multi-Dim advection */
(PID.TID 0000.0001)                   T
(PID.TID 0000.0001)     ;
(PID.TID 0000.0001) PTRACERS_AdamsBashGtr = /* apply AB on tracer tendency */
(PID.TID 0000.0001)                   F
(PID.TID 0000.0001)     ;
(PID.TID 0000.0001) PTRACERS_AdamsBash_Tr = /* apply AB on passive tracer */
(PID.TID 0000.0001)                   F
(PID.TID 0000.0001)     ;
(PID.TID 0000.0001) PTRACERS_diffKh = /* Laplacian Diffusivity */
(PID.TID 0000.0001)                 0.000000000000000E+00
(PID.TID 0000.0001)     ;
(PID.TID 0000.0001) PTRACERS_diffK4 = /* Biharmonic Diffusivity */
(PID.TID 0000.0001)                 0.000000000000000E+00
(PID.TID 0000.0001)     ;
(PID.TID 0000.0001) PTRACERS_diffKrNr = /* Vertical Diffusivity */
(PID.TID 0000.0001)    23 @  1.000000000000000E-05              /* K =  1: 23 */
(PID.TID 0000.0001)     ;
(PID.TID 0000.0001) PTRACERS_useGMRedi = /* apply GM-Redi */
(PID.TID 0000.0001)                   T
(PID.TID 0000.0001)     ;
(PID.TID 0000.0001) PTRACERS_useDWNSLP = /* apply DOWN-SLOPE Flow */
(PID.TID 0000.0001)                   F
(PID.TID 0000.0001)     ;
(PID.TID 0000.0001) PTRACERS_useKPP = /* apply KPP scheme */
(PID.TID 0000.0001)                   T
(PID.TID 0000.0001)     ;
(PID.TID 0000.0001) PTRACERS_stayPositive = /* use Smolarkiewicz Hack for this tracer */
(PID.TID 0000.0001)                   T
(PID.TID 0000.0001)     ;
(PID.TID 0000.0001) PTRACERS_ref = /* Reference vertical profile */
(PID.TID 0000.0001)    23 @  0.000000000000000E+00              /* K =  1: 23 */
(PID.TID 0000.0001)     ;
(PID.TID 0000.0001) PTRACERS_EvPrRn =/* tracer conc. in Evap. & Rain */
(PID.TID 0000.0001)                 1.234567000000000E+05
(PID.TID 0000.0001)     ;
(PID.TID 0000.0001)  -----------------------------------
(PID.TID 0000.0001)  tracer number :    5
(PID.TID 0000.0001) PTRACERS_names = /* Tracer short name */
(PID.TID 0000.0001)               'PO4'
(PID.TID 0000.0001)     ;
(PID.TID 0000.0001) PTRACERS_long_names = /* Tracer long name */
(PID.TID 0000.0001)               ''
(PID.TID 0000.0001)     ;
(PID.TID 0000.0001) PTRACERS_ioLabel = /* tracer IO Label */
(PID.TID 0000.0001)               '05'
(PID.TID 0000.0001)     ;
(PID.TID 0000.0001) PTRACERS_advScheme = /* Advection Scheme */
(PID.TID 0000.0001)                      33
(PID.TID 0000.0001)     ;
(PID.TID 0000.0001) PTRACERS_SOM_Advection = /* tracer uses SOM advection scheme */
(PID.TID 0000.0001)                   F
(PID.TID 0000.0001)     ;
(PID.TID 0000.0001) PTRACERS_ImplVertAdv = /* implicit vert. advection flag */
(PID.TID 0000.0001)                   F
(PID.TID 0000.0001)     ;
(PID.TID 0000.0001) PTRACERS_MultiDimAdv = /* tracer uses Multi-Dim advection */
(PID.TID 0000.0001)                   T
(PID.TID 0000.0001)     ;
(PID.TID 0000.0001) PTRACERS_AdamsBashGtr = /* apply AB on tracer tendency */
(PID.TID 0000.0001)                   F
(PID.TID 0000.0001)     ;
(PID.TID 0000.0001) PTRACERS_AdamsBash_Tr = /* apply AB on passive tracer */
(PID.TID 0000.0001)                   F
(PID.TID 0000.0001)     ;
(PID.TID 0000.0001) PTRACERS_diffKh = /* Laplacian Diffusivity */
(PID.TID 0000.0001)                 0.000000000000000E+00
(PID.TID 0000.0001)     ;
(PID.TID 0000.0001) PTRACERS_diffK4 = /* Biharmonic Diffusivity */
(PID.TID 0000.0001)                 0.000000000000000E+00
(PID.TID 0000.0001)     ;
(PID.TID 0000.0001) PTRACERS_diffKrNr = /* Vertical Diffusivity */
(PID.TID 0000.0001)    23 @  1.000000000000000E-05              /* K =  1: 23 */
(PID.TID 0000.0001)     ;
(PID.TID 0000.0001) PTRACERS_useGMRedi = /* apply GM-Redi */
(PID.TID 0000.0001)                   T
(PID.TID 0000.0001)     ;
(PID.TID 0000.0001) PTRACERS_useDWNSLP = /* apply DOWN-SLOPE Flow */
(PID.TID 0000.0001)                   F
(PID.TID 0000.0001)     ;
(PID.TID 0000.0001) PTRACERS_useKPP = /* apply KPP scheme */
(PID.TID 0000.0001)                   T
(PID.TID 0000.0001)     ;
(PID.TID 0000.0001) PTRACERS_stayPositive = /* use Smolarkiewicz Hack for this tracer */
(PID.TID 0000.0001)                   T
(PID.TID 0000.0001)     ;
(PID.TID 0000.0001) PTRACERS_ref = /* Reference vertical profile */
(PID.TID 0000.0001)    23 @  0.000000000000000E+00              /* K =  1: 23 */
(PID.TID 0000.0001)     ;
(PID.TID 0000.0001) PTRACERS_EvPrRn =/* tracer conc. in Evap. & Rain */
(PID.TID 0000.0001)                 1.234567000000000E+05
(PID.TID 0000.0001)     ;
(PID.TID 0000.0001)  -----------------------------------
(PID.TID 0000.0001)  tracer number :    6
(PID.TID 0000.0001) PTRACERS_names = /* Tracer short name */
(PID.TID 0000.0001)               'FeT'
(PID.TID 0000.0001)     ;
(PID.TID 0000.0001) PTRACERS_long_names = /* Tracer long name */
(PID.TID 0000.0001)               ''
(PID.TID 0000.0001)     ;
(PID.TID 0000.0001) PTRACERS_ioLabel = /* tracer IO Label */
(PID.TID 0000.0001)               '06'
(PID.TID 0000.0001)     ;
(PID.TID 0000.0001) PTRACERS_advScheme = /* Advection Scheme */
(PID.TID 0000.0001)                      33
(PID.TID 0000.0001)     ;
(PID.TID 0000.0001) PTRACERS_SOM_Advection = /* tracer uses SOM advection scheme */
(PID.TID 0000.0001)                   F
(PID.TID 0000.0001)     ;
(PID.TID 0000.0001) PTRACERS_ImplVertAdv = /* implicit vert. advection flag */
(PID.TID 0000.0001)                   F
(PID.TID 0000.0001)     ;
(PID.TID 0000.0001) PTRACERS_MultiDimAdv = /* tracer uses Multi-Dim advection */
(PID.TID 0000.0001)                   T
(PID.TID 0000.0001)     ;
(PID.TID 0000.0001) PTRACERS_AdamsBashGtr = /* apply AB on tracer tendency */
(PID.TID 0000.0001)                   F
(PID.TID 0000.0001)     ;
(PID.TID 0000.0001) PTRACERS_AdamsBash_Tr = /* apply AB on passive tracer */
(PID.TID 0000.0001)                   F
(PID.TID 0000.0001)     ;
(PID.TID 0000.0001) PTRACERS_diffKh = /* Laplacian Diffusivity */
(PID.TID 0000.0001)                 0.000000000000000E+00
(PID.TID 0000.0001)     ;
(PID.TID 0000.0001) PTRACERS_diffK4 = /* Biharmonic Diffusivity */
(PID.TID 0000.0001)                 0.000000000000000E+00
(PID.TID 0000.0001)     ;
(PID.TID 0000.0001) PTRACERS_diffKrNr = /* Vertical Diffusivity */
(PID.TID 0000.0001)    23 @  1.000000000000000E-05              /* K =  1: 23 */
(PID.TID 0000.0001)     ;
(PID.TID 0000.0001) PTRACERS_useGMRedi = /* apply GM-Redi */
(PID.TID 0000.0001)                   T
(PID.TID 0000.0001)     ;
(PID.TID 0000.0001) PTRACERS_useDWNSLP = /* apply DOWN-SLOPE Flow */
(PID.TID 0000.0001)                   F
(PID.TID 0000.0001)     ;
(PID.TID 0000.0001) PTRACERS_useKPP = /* apply KPP scheme */
(PID.TID 0000.0001)                   T
(PID.TID 0000.0001)     ;
(PID.TID 0000.0001) PTRACERS_stayPositive = /* use Smolarkiewicz Hack for this tracer */
(PID.TID 0000.0001)                   T
(PID.TID 0000.0001)     ;
(PID.TID 0000.0001) PTRACERS_ref = /* Reference vertical profile */
(PID.TID 0000.0001)    23 @  0.000000000000000E+00              /* K =  1: 23 */
(PID.TID 0000.0001)     ;
(PID.TID 0000.0001) PTRACERS_EvPrRn =/* tracer conc. in Evap. & Rain */
(PID.TID 0000.0001)                 1.234567000000000E+05
(PID.TID 0000.0001)     ;
(PID.TID 0000.0001)  -----------------------------------
(PID.TID 0000.0001)  tracer number :    7
(PID.TID 0000.0001) PTRACERS_names = /* Tracer short name */
(PID.TID 0000.0001)               'SiO2'
(PID.TID 0000.0001)     ;
(PID.TID 0000.0001) PTRACERS_long_names = /* Tracer long name */
(PID.TID 0000.0001)               ''
(PID.TID 0000.0001)     ;
(PID.TID 0000.0001) PTRACERS_ioLabel = /* tracer IO Label */
(PID.TID 0000.0001)               '07'
(PID.TID 0000.0001)     ;
(PID.TID 0000.0001) PTRACERS_advScheme = /* Advection Scheme */
(PID.TID 0000.0001)                      33
(PID.TID 0000.0001)     ;
(PID.TID 0000.0001) PTRACERS_SOM_Advection = /* tracer uses SOM advection scheme */
(PID.TID 0000.0001)                   F
(PID.TID 0000.0001)     ;
(PID.TID 0000.0001) PTRACERS_ImplVertAdv = /* implicit vert. advection flag */
(PID.TID 0000.0001)                   F
(PID.TID 0000.0001)     ;
(PID.TID 0000.0001) PTRACERS_MultiDimAdv = /* tracer uses Multi-Dim advection */
(PID.TID 0000.0001)                   T
(PID.TID 0000.0001)     ;
(PID.TID 0000.0001) PTRACERS_AdamsBashGtr = /* apply AB on tracer tendency */
(PID.TID 0000.0001)                   F
(PID.TID 0000.0001)     ;
(PID.TID 0000.0001) PTRACERS_AdamsBash_Tr = /* apply AB on passive tracer */
(PID.TID 0000.0001)                   F
(PID.TID 0000.0001)     ;
(PID.TID 0000.0001) PTRACERS_diffKh = /* Laplacian Diffusivity */
(PID.TID 0000.0001)                 0.000000000000000E+00
(PID.TID 0000.0001)     ;
(PID.TID 0000.0001) PTRACERS_diffK4 = /* Biharmonic Diffusivity */
(PID.TID 0000.0001)                 0.000000000000000E+00
(PID.TID 0000.0001)     ;
(PID.TID 0000.0001) PTRACERS_diffKrNr = /* Vertical Diffusivity */
(PID.TID 0000.0001)    23 @  1.000000000000000E-05              /* K =  1: 23 */
(PID.TID 0000.0001)     ;
(PID.TID 0000.0001) PTRACERS_useGMRedi = /* apply GM-Redi */
(PID.TID 0000.0001)                   T
(PID.TID 0000.0001)     ;
(PID.TID 0000.0001) PTRACERS_useDWNSLP = /* apply DOWN-SLOPE Flow */
(PID.TID 0000.0001)                   F
(PID.TID 0000.0001)     ;
(PID.TID 0000.0001) PTRACERS_useKPP = /* apply KPP scheme */
(PID.TID 0000.0001)                   T
(PID.TID 0000.0001)     ;
(PID.TID 0000.0001) PTRACERS_stayPositive = /* use Smolarkiewicz Hack for this tracer */
(PID.TID 0000.0001)                   T
(PID.TID 0000.0001)     ;
(PID.TID 0000.0001) PTRACERS_ref = /* Reference vertical profile */
(PID.TID 0000.0001)    23 @  0.000000000000000E+00              /* K =  1: 23 */
(PID.TID 0000.0001)     ;
(PID.TID 0000.0001) PTRACERS_EvPrRn =/* tracer conc. in Evap. & Rain */
(PID.TID 0000.0001)                 1.234567000000000E+05
(PID.TID 0000.0001)     ;
(PID.TID 0000.0001)  -----------------------------------
(PID.TID 0000.0001)  tracer number :    8
(PID.TID 0000.0001) PTRACERS_names = /* Tracer short name */
(PID.TID 0000.0001)               'DOC'
(PID.TID 0000.0001)     ;
(PID.TID 0000.0001) PTRACERS_long_names = /* Tracer long name */
(PID.TID 0000.0001)               ''
(PID.TID 0000.0001)     ;
(PID.TID 0000.0001) PTRACERS_ioLabel = /* tracer IO Label */
(PID.TID 0000.0001)               '08'
(PID.TID 0000.0001)     ;
(PID.TID 0000.0001) PTRACERS_advScheme = /* Advection Scheme */
(PID.TID 0000.0001)                      33
(PID.TID 0000.0001)     ;
(PID.TID 0000.0001) PTRACERS_SOM_Advection = /* tracer uses SOM advection scheme */
(PID.TID 0000.0001)                   F
(PID.TID 0000.0001)     ;
(PID.TID 0000.0001) PTRACERS_ImplVertAdv = /* implicit vert. advection flag */
(PID.TID 0000.0001)                   F
(PID.TID 0000.0001)     ;
(PID.TID 0000.0001) PTRACERS_MultiDimAdv = /* tracer uses Multi-Dim advection */
(PID.TID 0000.0001)                   T
(PID.TID 0000.0001)     ;
(PID.TID 0000.0001) PTRACERS_AdamsBashGtr = /* apply AB on tracer tendency */
(PID.TID 0000.0001)                   F
(PID.TID 0000.0001)     ;
(PID.TID 0000.0001) PTRACERS_AdamsBash_Tr = /* apply AB on passive tracer */
(PID.TID 0000.0001)                   F
(PID.TID 0000.0001)     ;
(PID.TID 0000.0001) PTRACERS_diffKh = /* Laplacian Diffusivity */
(PID.TID 0000.0001)                 0.000000000000000E+00
(PID.TID 0000.0001)     ;
(PID.TID 0000.0001) PTRACERS_diffK4 = /* Biharmonic Diffusivity */
(PID.TID 0000.0001)                 0.000000000000000E+00
(PID.TID 0000.0001)     ;
(PID.TID 0000.0001) PTRACERS_diffKrNr = /* Vertical Diffusivity */
(PID.TID 0000.0001)    23 @  1.000000000000000E-05              /* K =  1: 23 */
(PID.TID 0000.0001)     ;
(PID.TID 0000.0001) PTRACERS_useGMRedi = /* apply GM-Redi */
(PID.TID 0000.0001)                   T
(PID.TID 0000.0001)     ;
(PID.TID 0000.0001) PTRACERS_useDWNSLP = /* apply DOWN-SLOPE Flow */
(PID.TID 0000.0001)                   F
(PID.TID 0000.0001)     ;
(PID.TID 0000.0001) PTRACERS_useKPP = /* apply KPP scheme */
(PID.TID 0000.0001)                   T
(PID.TID 0000.0001)     ;
(PID.TID 0000.0001) PTRACERS_stayPositive = /* use Smolarkiewicz Hack for this tracer */
(PID.TID 0000.0001)                   T
(PID.TID 0000.0001)     ;
(PID.TID 0000.0001) PTRACERS_ref = /* Reference vertical profile */
(PID.TID 0000.0001)    23 @  0.000000000000000E+00              /* K =  1: 23 */
(PID.TID 0000.0001)     ;
(PID.TID 0000.0001) PTRACERS_EvPrRn =/* tracer conc. in Evap. & Rain */
(PID.TID 0000.0001)                 1.234567000000000E+05
(PID.TID 0000.0001)     ;
(PID.TID 0000.0001)  -----------------------------------
(PID.TID 0000.0001)  tracer number :    9
(PID.TID 0000.0001) PTRACERS_names = /* Tracer short name */
(PID.TID 0000.0001)               'DON'
(PID.TID 0000.0001)     ;
(PID.TID 0000.0001) PTRACERS_long_names = /* Tracer long name */
(PID.TID 0000.0001)               ''
(PID.TID 0000.0001)     ;
(PID.TID 0000.0001) PTRACERS_ioLabel = /* tracer IO Label */
(PID.TID 0000.0001)               '09'
(PID.TID 0000.0001)     ;
(PID.TID 0000.0001) PTRACERS_advScheme = /* Advection Scheme */
(PID.TID 0000.0001)                      33
(PID.TID 0000.0001)     ;
(PID.TID 0000.0001) PTRACERS_SOM_Advection = /* tracer uses SOM advection scheme */
(PID.TID 0000.0001)                   F
(PID.TID 0000.0001)     ;
(PID.TID 0000.0001) PTRACERS_ImplVertAdv = /* implicit vert. advection flag */
(PID.TID 0000.0001)                   F
(PID.TID 0000.0001)     ;
(PID.TID 0000.0001) PTRACERS_MultiDimAdv = /* tracer uses Multi-Dim advection */
(PID.TID 0000.0001)                   T
(PID.TID 0000.0001)     ;
(PID.TID 0000.0001) PTRACERS_AdamsBashGtr = /* apply AB on tracer tendency */
(PID.TID 0000.0001)                   F
(PID.TID 0000.0001)     ;
(PID.TID 0000.0001) PTRACERS_AdamsBash_Tr = /* apply AB on passive tracer */
(PID.TID 0000.0001)                   F
(PID.TID 0000.0001)     ;
(PID.TID 0000.0001) PTRACERS_diffKh = /* Laplacian Diffusivity */
(PID.TID 0000.0001)                 0.000000000000000E+00
(PID.TID 0000.0001)     ;
(PID.TID 0000.0001) PTRACERS_diffK4 = /* Biharmonic Diffusivity */
(PID.TID 0000.0001)                 0.000000000000000E+00
(PID.TID 0000.0001)     ;
(PID.TID 0000.0001) PTRACERS_diffKrNr = /* Vertical Diffusivity */
(PID.TID 0000.0001)    23 @  1.000000000000000E-05              /* K =  1: 23 */
(PID.TID 0000.0001)     ;
(PID.TID 0000.0001) PTRACERS_useGMRedi = /* apply GM-Redi */
(PID.TID 0000.0001)                   T
(PID.TID 0000.0001)     ;
(PID.TID 0000.0001) PTRACERS_useDWNSLP = /* apply DOWN-SLOPE Flow */
(PID.TID 0000.0001)                   F
(PID.TID 0000.0001)     ;
(PID.TID 0000.0001) PTRACERS_useKPP = /* apply KPP scheme */
(PID.TID 0000.0001)                   T
(PID.TID 0000.0001)     ;
(PID.TID 0000.0001) PTRACERS_stayPositive = /* use Smolarkiewicz Hack for this tracer */
(PID.TID 0000.0001)                   T
(PID.TID 0000.0001)     ;
(PID.TID 0000.0001) PTRACERS_ref = /* Reference vertical profile */
(PID.TID 0000.0001)    23 @  0.000000000000000E+00              /* K =  1: 23 */
(PID.TID 0000.0001)     ;
(PID.TID 0000.0001) PTRACERS_EvPrRn =/* tracer conc. in Evap. & Rain */
(PID.TID 0000.0001)                 1.234567000000000E+05
(PID.TID 0000.0001)     ;
(PID.TID 0000.0001)  -----------------------------------
(PID.TID 0000.0001)  tracer number :   10
(PID.TID 0000.0001) PTRACERS_names = /* Tracer short name */
(PID.TID 0000.0001)               'DOP'
(PID.TID 0000.0001)     ;
(PID.TID 0000.0001) PTRACERS_long_names = /* Tracer long name */
(PID.TID 0000.0001)               ''
(PID.TID 0000.0001)     ;
(PID.TID 0000.0001) PTRACERS_ioLabel = /* tracer IO Label */
(PID.TID 0000.0001)               '10'
(PID.TID 0000.0001)     ;
(PID.TID 0000.0001) PTRACERS_advScheme = /* Advection Scheme */
(PID.TID 0000.0001)                      33
(PID.TID 0000.0001)     ;
(PID.TID 0000.0001) PTRACERS_SOM_Advection = /* tracer uses SOM advection scheme */
(PID.TID 0000.0001)                   F
(PID.TID 0000.0001)     ;
(PID.TID 0000.0001) PTRACERS_ImplVertAdv = /* implicit vert. advection flag */
(PID.TID 0000.0001)                   F
(PID.TID 0000.0001)     ;
(PID.TID 0000.0001) PTRACERS_MultiDimAdv = /* tracer uses Multi-Dim advection */
(PID.TID 0000.0001)                   T
(PID.TID 0000.0001)     ;
(PID.TID 0000.0001) PTRACERS_AdamsBashGtr = /* apply AB on tracer tendency */
(PID.TID 0000.0001)                   F
(PID.TID 0000.0001)     ;
(PID.TID 0000.0001) PTRACERS_AdamsBash_Tr = /* apply AB on passive tracer */
(PID.TID 0000.0001)                   F
(PID.TID 0000.0001)     ;
(PID.TID 0000.0001) PTRACERS_diffKh = /* Laplacian Diffusivity */
(PID.TID 0000.0001)                 0.000000000000000E+00
(PID.TID 0000.0001)     ;
(PID.TID 0000.0001) PTRACERS_diffK4 = /* Biharmonic Diffusivity */
(PID.TID 0000.0001)                 0.000000000000000E+00
(PID.TID 0000.0001)     ;
(PID.TID 0000.0001) PTRACERS_diffKrNr = /* Vertical Diffusivity */
(PID.TID 0000.0001)    23 @  1.000000000000000E-05              /* K =  1: 23 */
(PID.TID 0000.0001)     ;
(PID.TID 0000.0001) PTRACERS_useGMRedi = /* apply GM-Redi */
(PID.TID 0000.0001)                   T
(PID.TID 0000.0001)     ;
(PID.TID 0000.0001) PTRACERS_useDWNSLP = /* apply DOWN-SLOPE Flow */
(PID.TID 0000.0001)                   F
(PID.TID 0000.0001)     ;
(PID.TID 0000.0001) PTRACERS_useKPP = /* apply KPP scheme */
(PID.TID 0000.0001)                   T
(PID.TID 0000.0001)     ;
(PID.TID 0000.0001) PTRACERS_stayPositive = /* use Smolarkiewicz Hack for this tracer */
(PID.TID 0000.0001)                   T
(PID.TID 0000.0001)     ;
(PID.TID 0000.0001) PTRACERS_ref = /* Reference vertical profile */
(PID.TID 0000.0001)    23 @  0.000000000000000E+00              /* K =  1: 23 */
(PID.TID 0000.0001)     ;
(PID.TID 0000.0001) PTRACERS_EvPrRn =/* tracer conc. in Evap. & Rain */
(PID.TID 0000.0001)                 1.234567000000000E+05
(PID.TID 0000.0001)     ;
(PID.TID 0000.0001)  -----------------------------------
(PID.TID 0000.0001)  tracer number :   11
(PID.TID 0000.0001) PTRACERS_names = /* Tracer short name */
(PID.TID 0000.0001)               'DOFe'
(PID.TID 0000.0001)     ;
(PID.TID 0000.0001) PTRACERS_long_names = /* Tracer long name */
(PID.TID 0000.0001)               ''
(PID.TID 0000.0001)     ;
(PID.TID 0000.0001) PTRACERS_ioLabel = /* tracer IO Label */
(PID.TID 0000.0001)               '11'
(PID.TID 0000.0001)     ;
(PID.TID 0000.0001) PTRACERS_advScheme = /* Advection Scheme */
(PID.TID 0000.0001)                      33
(PID.TID 0000.0001)     ;
(PID.TID 0000.0001) PTRACERS_SOM_Advection = /* tracer uses SOM advection scheme */
(PID.TID 0000.0001)                   F
(PID.TID 0000.0001)     ;
(PID.TID 0000.0001) PTRACERS_ImplVertAdv = /* implicit vert. advection flag */
(PID.TID 0000.0001)                   F
(PID.TID 0000.0001)     ;
(PID.TID 0000.0001) PTRACERS_MultiDimAdv = /* tracer uses Multi-Dim advection */
(PID.TID 0000.0001)                   T
(PID.TID 0000.0001)     ;
(PID.TID 0000.0001) PTRACERS_AdamsBashGtr = /* apply AB on tracer tendency */
(PID.TID 0000.0001)                   F
(PID.TID 0000.0001)     ;
(PID.TID 0000.0001) PTRACERS_AdamsBash_Tr = /* apply AB on passive tracer */
(PID.TID 0000.0001)                   F
(PID.TID 0000.0001)     ;
(PID.TID 0000.0001) PTRACERS_diffKh = /* Laplacian Diffusivity */
(PID.TID 0000.0001)                 0.000000000000000E+00
(PID.TID 0000.0001)     ;
(PID.TID 0000.0001) PTRACERS_diffK4 = /* Biharmonic Diffusivity */
(PID.TID 0000.0001)                 0.000000000000000E+00
(PID.TID 0000.0001)     ;
(PID.TID 0000.0001) PTRACERS_diffKrNr = /* Vertical Diffusivity */
(PID.TID 0000.0001)    23 @  1.000000000000000E-05              /* K =  1: 23 */
(PID.TID 0000.0001)     ;
(PID.TID 0000.0001) PTRACERS_useGMRedi = /* apply GM-Redi */
(PID.TID 0000.0001)                   T
(PID.TID 0000.0001)     ;
(PID.TID 0000.0001) PTRACERS_useDWNSLP = /* apply DOWN-SLOPE Flow */
(PID.TID 0000.0001)                   F
(PID.TID 0000.0001)     ;
(PID.TID 0000.0001) PTRACERS_useKPP = /* apply KPP scheme */
(PID.TID 0000.0001)                   T
(PID.TID 0000.0001)     ;
(PID.TID 0000.0001) PTRACERS_stayPositive = /* use Smolarkiewicz Hack for this tracer */
(PID.TID 0000.0001)                   T
(PID.TID 0000.0001)     ;
(PID.TID 0000.0001) PTRACERS_ref = /* Reference vertical profile */
(PID.TID 0000.0001)    23 @  0.000000000000000E+00              /* K =  1: 23 */
(PID.TID 0000.0001)     ;
(PID.TID 0000.0001) PTRACERS_EvPrRn =/* tracer conc. in Evap. & Rain */
(PID.TID 0000.0001)                 1.234567000000000E+05
(PID.TID 0000.0001)     ;
(PID.TID 0000.0001)  -----------------------------------
(PID.TID 0000.0001)  tracer number :   12
(PID.TID 0000.0001) PTRACERS_names = /* Tracer short name */
(PID.TID 0000.0001)               'POC'
(PID.TID 0000.0001)     ;
(PID.TID 0000.0001) PTRACERS_long_names = /* Tracer long name */
(PID.TID 0000.0001)               ''
(PID.TID 0000.0001)     ;
(PID.TID 0000.0001) PTRACERS_ioLabel = /* tracer IO Label */
(PID.TID 0000.0001)               '12'
(PID.TID 0000.0001)     ;
(PID.TID 0000.0001) PTRACERS_advScheme = /* Advection Scheme */
(PID.TID 0000.0001)                      33
(PID.TID 0000.0001)     ;
(PID.TID 0000.0001) PTRACERS_SOM_Advection = /* tracer uses SOM advection scheme */
(PID.TID 0000.0001)                   F
(PID.TID 0000.0001)     ;
(PID.TID 0000.0001) PTRACERS_ImplVertAdv = /* implicit vert. advection flag */
(PID.TID 0000.0001)                   F
(PID.TID 0000.0001)     ;
(PID.TID 0000.0001) PTRACERS_MultiDimAdv = /* tracer uses Multi-Dim advection */
(PID.TID 0000.0001)                   T
(PID.TID 0000.0001)     ;
(PID.TID 0000.0001) PTRACERS_AdamsBashGtr = /* apply AB on tracer tendency */
(PID.TID 0000.0001)                   F
(PID.TID 0000.0001)     ;
(PID.TID 0000.0001) PTRACERS_AdamsBash_Tr = /* apply AB on passive tracer */
(PID.TID 0000.0001)                   F
(PID.TID 0000.0001)     ;
(PID.TID 0000.0001) PTRACERS_diffKh = /* Laplacian Diffusivity */
(PID.TID 0000.0001)                 0.000000000000000E+00
(PID.TID 0000.0001)     ;
(PID.TID 0000.0001) PTRACERS_diffK4 = /* Biharmonic Diffusivity */
(PID.TID 0000.0001)                 0.000000000000000E+00
(PID.TID 0000.0001)     ;
(PID.TID 0000.0001) PTRACERS_diffKrNr = /* Vertical Diffusivity */
(PID.TID 0000.0001)    23 @  1.000000000000000E-05              /* K =  1: 23 */
(PID.TID 0000.0001)     ;
(PID.TID 0000.0001) PTRACERS_useGMRedi = /* apply GM-Redi */
(PID.TID 0000.0001)                   T
(PID.TID 0000.0001)     ;
(PID.TID 0000.0001) PTRACERS_useDWNSLP = /* apply DOWN-SLOPE Flow */
(PID.TID 0000.0001)                   F
(PID.TID 0000.0001)     ;
(PID.TID 0000.0001) PTRACERS_useKPP = /* apply KPP scheme */
(PID.TID 0000.0001)                   T
(PID.TID 0000.0001)     ;
(PID.TID 0000.0001) PTRACERS_stayPositive = /* use Smolarkiewicz Hack for this tracer */
(PID.TID 0000.0001)                   T
(PID.TID 0000.0001)     ;
(PID.TID 0000.0001) PTRACERS_ref = /* Reference vertical profile */
(PID.TID 0000.0001)    23 @  0.000000000000000E+00              /* K =  1: 23 */
(PID.TID 0000.0001)     ;
(PID.TID 0000.0001) PTRACERS_EvPrRn =/* tracer conc. in Evap. & Rain */
(PID.TID 0000.0001)                 1.234567000000000E+05
(PID.TID 0000.0001)     ;
(PID.TID 0000.0001)  -----------------------------------
(PID.TID 0000.0001)  tracer number :   13
(PID.TID 0000.0001) PTRACERS_names = /* Tracer short name */
(PID.TID 0000.0001)               'PON'
(PID.TID 0000.0001)     ;
(PID.TID 0000.0001) PTRACERS_long_names = /* Tracer long name */
(PID.TID 0000.0001)               ''
(PID.TID 0000.0001)     ;
(PID.TID 0000.0001) PTRACERS_ioLabel = /* tracer IO Label */
(PID.TID 0000.0001)               '13'
(PID.TID 0000.0001)     ;
(PID.TID 0000.0001) PTRACERS_advScheme = /* Advection Scheme */
(PID.TID 0000.0001)                      33
(PID.TID 0000.0001)     ;
(PID.TID 0000.0001) PTRACERS_SOM_Advection = /* tracer uses SOM advection scheme */
(PID.TID 0000.0001)                   F
(PID.TID 0000.0001)     ;
(PID.TID 0000.0001) PTRACERS_ImplVertAdv = /* implicit vert. advection flag */
(PID.TID 0000.0001)                   F
(PID.TID 0000.0001)     ;
(PID.TID 0000.0001) PTRACERS_MultiDimAdv = /* tracer uses Multi-Dim advection */
(PID.TID 0000.0001)                   T
(PID.TID 0000.0001)     ;
(PID.TID 0000.0001) PTRACERS_AdamsBashGtr = /* apply AB on tracer tendency */
(PID.TID 0000.0001)                   F
(PID.TID 0000.0001)     ;
(PID.TID 0000.0001) PTRACERS_AdamsBash_Tr = /* apply AB on passive tracer */
(PID.TID 0000.0001)                   F
(PID.TID 0000.0001)     ;
(PID.TID 0000.0001) PTRACERS_diffKh = /* Laplacian Diffusivity */
(PID.TID 0000.0001)                 0.000000000000000E+00
(PID.TID 0000.0001)     ;
(PID.TID 0000.0001) PTRACERS_diffK4 = /* Biharmonic Diffusivity */
(PID.TID 0000.0001)                 0.000000000000000E+00
(PID.TID 0000.0001)     ;
(PID.TID 0000.0001) PTRACERS_diffKrNr = /* Vertical Diffusivity */
(PID.TID 0000.0001)    23 @  1.000000000000000E-05              /* K =  1: 23 */
(PID.TID 0000.0001)     ;
(PID.TID 0000.0001) PTRACERS_useGMRedi = /* apply GM-Redi */
(PID.TID 0000.0001)                   T
(PID.TID 0000.0001)     ;
(PID.TID 0000.0001) PTRACERS_useDWNSLP = /* apply DOWN-SLOPE Flow */
(PID.TID 0000.0001)                   F
(PID.TID 0000.0001)     ;
(PID.TID 0000.0001) PTRACERS_useKPP = /* apply KPP scheme */
(PID.TID 0000.0001)                   T
(PID.TID 0000.0001)     ;
(PID.TID 0000.0001) PTRACERS_stayPositive = /* use Smolarkiewicz Hack for this tracer */
(PID.TID 0000.0001)                   T
(PID.TID 0000.0001)     ;
(PID.TID 0000.0001) PTRACERS_ref = /* Reference vertical profile */
(PID.TID 0000.0001)    23 @  0.000000000000000E+00              /* K =  1: 23 */
(PID.TID 0000.0001)     ;
(PID.TID 0000.0001) PTRACERS_EvPrRn =/* tracer conc. in Evap. & Rain */
(PID.TID 0000.0001)                 1.234567000000000E+05
(PID.TID 0000.0001)     ;
(PID.TID 0000.0001)  -----------------------------------
(PID.TID 0000.0001)  tracer number :   14
(PID.TID 0000.0001) PTRACERS_names = /* Tracer short name */
(PID.TID 0000.0001)               'POP'
(PID.TID 0000.0001)     ;
(PID.TID 0000.0001) PTRACERS_long_names = /* Tracer long name */
(PID.TID 0000.0001)               ''
(PID.TID 0000.0001)     ;
(PID.TID 0000.0001) PTRACERS_ioLabel = /* tracer IO Label */
(PID.TID 0000.0001)               '14'
(PID.TID 0000.0001)     ;
(PID.TID 0000.0001) PTRACERS_advScheme = /* Advection Scheme */
(PID.TID 0000.0001)                      33
(PID.TID 0000.0001)     ;
(PID.TID 0000.0001) PTRACERS_SOM_Advection = /* tracer uses SOM advection scheme */
(PID.TID 0000.0001)                   F
(PID.TID 0000.0001)     ;
(PID.TID 0000.0001) PTRACERS_ImplVertAdv = /* implicit vert. advection flag */
(PID.TID 0000.0001)                   F
(PID.TID 0000.0001)     ;
(PID.TID 0000.0001) PTRACERS_MultiDimAdv = /* tracer uses Multi-Dim advection */
(PID.TID 0000.0001)                   T
(PID.TID 0000.0001)     ;
(PID.TID 0000.0001) PTRACERS_AdamsBashGtr = /* apply AB on tracer tendency */
(PID.TID 0000.0001)                   F
(PID.TID 0000.0001)     ;
(PID.TID 0000.0001) PTRACERS_AdamsBash_Tr = /* apply AB on passive tracer */
(PID.TID 0000.0001)                   F
(PID.TID 0000.0001)     ;
(PID.TID 0000.0001) PTRACERS_diffKh = /* Laplacian Diffusivity */
(PID.TID 0000.0001)                 0.000000000000000E+00
(PID.TID 0000.0001)     ;
(PID.TID 0000.0001) PTRACERS_diffK4 = /* Biharmonic Diffusivity */
(PID.TID 0000.0001)                 0.000000000000000E+00
(PID.TID 0000.0001)     ;
(PID.TID 0000.0001) PTRACERS_diffKrNr = /* Vertical Diffusivity */
(PID.TID 0000.0001)    23 @  1.000000000000000E-05              /* K =  1: 23 */
(PID.TID 0000.0001)     ;
(PID.TID 0000.0001) PTRACERS_useGMRedi = /* apply GM-Redi */
(PID.TID 0000.0001)                   T
(PID.TID 0000.0001)     ;
(PID.TID 0000.0001) PTRACERS_useDWNSLP = /* apply DOWN-SLOPE Flow */
(PID.TID 0000.0001)                   F
(PID.TID 0000.0001)     ;
(PID.TID 0000.0001) PTRACERS_useKPP = /* apply KPP scheme */
(PID.TID 0000.0001)                   T
(PID.TID 0000.0001)     ;
(PID.TID 0000.0001) PTRACERS_stayPositive = /* use Smolarkiewicz Hack for this tracer */
(PID.TID 0000.0001)                   T
(PID.TID 0000.0001)     ;
(PID.TID 0000.0001) PTRACERS_ref = /* Reference vertical profile */
(PID.TID 0000.0001)    23 @  0.000000000000000E+00              /* K =  1: 23 */
(PID.TID 0000.0001)     ;
(PID.TID 0000.0001) PTRACERS_EvPrRn =/* tracer conc. in Evap. & Rain */
(PID.TID 0000.0001)                 1.234567000000000E+05
(PID.TID 0000.0001)     ;
(PID.TID 0000.0001)  -----------------------------------
(PID.TID 0000.0001)  tracer number :   15
(PID.TID 0000.0001) PTRACERS_names = /* Tracer short name */
(PID.TID 0000.0001)               'POFe'
(PID.TID 0000.0001)     ;
(PID.TID 0000.0001) PTRACERS_long_names = /* Tracer long name */
(PID.TID 0000.0001)               ''
(PID.TID 0000.0001)     ;
(PID.TID 0000.0001) PTRACERS_ioLabel = /* tracer IO Label */
(PID.TID 0000.0001)               '15'
(PID.TID 0000.0001)     ;
(PID.TID 0000.0001) PTRACERS_advScheme = /* Advection Scheme */
(PID.TID 0000.0001)                      33
(PID.TID 0000.0001)     ;
(PID.TID 0000.0001) PTRACERS_SOM_Advection = /* tracer uses SOM advection scheme */
(PID.TID 0000.0001)                   F
(PID.TID 0000.0001)     ;
(PID.TID 0000.0001) PTRACERS_ImplVertAdv = /* implicit vert. advection flag */
(PID.TID 0000.0001)                   F
(PID.TID 0000.0001)     ;
(PID.TID 0000.0001) PTRACERS_MultiDimAdv = /* tracer uses Multi-Dim advection */
(PID.TID 0000.0001)                   T
(PID.TID 0000.0001)     ;
(PID.TID 0000.0001) PTRACERS_AdamsBashGtr = /* apply AB on tracer tendency */
(PID.TID 0000.0001)                   F
(PID.TID 0000.0001)     ;
(PID.TID 0000.0001) PTRACERS_AdamsBash_Tr = /* apply AB on passive tracer */
(PID.TID 0000.0001)                   F
(PID.TID 0000.0001)     ;
(PID.TID 0000.0001) PTRACERS_diffKh = /* Laplacian Diffusivity */
(PID.TID 0000.0001)                 0.000000000000000E+00
(PID.TID 0000.0001)     ;
(PID.TID 0000.0001) PTRACERS_diffK4 = /* Biharmonic Diffusivity */
(PID.TID 0000.0001)                 0.000000000000000E+00
(PID.TID 0000.0001)     ;
(PID.TID 0000.0001) PTRACERS_diffKrNr = /* Vertical Diffusivity */
(PID.TID 0000.0001)    23 @  1.000000000000000E-05              /* K =  1: 23 */
(PID.TID 0000.0001)     ;
(PID.TID 0000.0001) PTRACERS_useGMRedi = /* apply GM-Redi */
(PID.TID 0000.0001)                   T
(PID.TID 0000.0001)     ;
(PID.TID 0000.0001) PTRACERS_useDWNSLP = /* apply DOWN-SLOPE Flow */
(PID.TID 0000.0001)                   F
(PID.TID 0000.0001)     ;
(PID.TID 0000.0001) PTRACERS_useKPP = /* apply KPP scheme */
(PID.TID 0000.0001)                   T
(PID.TID 0000.0001)     ;
(PID.TID 0000.0001) PTRACERS_stayPositive = /* use Smolarkiewicz Hack for this tracer */
(PID.TID 0000.0001)                   T
(PID.TID 0000.0001)     ;
(PID.TID 0000.0001) PTRACERS_ref = /* Reference vertical profile */
(PID.TID 0000.0001)    23 @  0.000000000000000E+00              /* K =  1: 23 */
(PID.TID 0000.0001)     ;
(PID.TID 0000.0001) PTRACERS_EvPrRn =/* tracer conc. in Evap. & Rain */
(PID.TID 0000.0001)                 1.234567000000000E+05
(PID.TID 0000.0001)     ;
(PID.TID 0000.0001)  -----------------------------------
(PID.TID 0000.0001)  tracer number :   16
(PID.TID 0000.0001) PTRACERS_names = /* Tracer short name */
(PID.TID 0000.0001)               'POSi'
(PID.TID 0000.0001)     ;
(PID.TID 0000.0001) PTRACERS_long_names = /* Tracer long name */
(PID.TID 0000.0001)               ''
(PID.TID 0000.0001)     ;
(PID.TID 0000.0001) PTRACERS_ioLabel = /* tracer IO Label */
(PID.TID 0000.0001)               '16'
(PID.TID 0000.0001)     ;
(PID.TID 0000.0001) PTRACERS_advScheme = /* Advection Scheme */
(PID.TID 0000.0001)                      33
(PID.TID 0000.0001)     ;
(PID.TID 0000.0001) PTRACERS_SOM_Advection = /* tracer uses SOM advection scheme */
(PID.TID 0000.0001)                   F
(PID.TID 0000.0001)     ;
(PID.TID 0000.0001) PTRACERS_ImplVertAdv = /* implicit vert. advection flag */
(PID.TID 0000.0001)                   F
(PID.TID 0000.0001)     ;
(PID.TID 0000.0001) PTRACERS_MultiDimAdv = /* tracer uses Multi-Dim advection */
(PID.TID 0000.0001)                   T
(PID.TID 0000.0001)     ;
(PID.TID 0000.0001) PTRACERS_AdamsBashGtr = /* apply AB on tracer tendency */
(PID.TID 0000.0001)                   F
(PID.TID 0000.0001)     ;
(PID.TID 0000.0001) PTRACERS_AdamsBash_Tr = /* apply AB on passive tracer */
(PID.TID 0000.0001)                   F
(PID.TID 0000.0001)     ;
(PID.TID 0000.0001) PTRACERS_diffKh = /* Laplacian Diffusivity */
(PID.TID 0000.0001)                 0.000000000000000E+00
(PID.TID 0000.0001)     ;
(PID.TID 0000.0001) PTRACERS_diffK4 = /* Biharmonic Diffusivity */
(PID.TID 0000.0001)                 0.000000000000000E+00
(PID.TID 0000.0001)     ;
(PID.TID 0000.0001) PTRACERS_diffKrNr = /* Vertical Diffusivity */
(PID.TID 0000.0001)    23 @  1.000000000000000E-05              /* K =  1: 23 */
(PID.TID 0000.0001)     ;
(PID.TID 0000.0001) PTRACERS_useGMRedi = /* apply GM-Redi */
(PID.TID 0000.0001)                   T
(PID.TID 0000.0001)     ;
(PID.TID 0000.0001) PTRACERS_useDWNSLP = /* apply DOWN-SLOPE Flow */
(PID.TID 0000.0001)                   F
(PID.TID 0000.0001)     ;
(PID.TID 0000.0001) PTRACERS_useKPP = /* apply KPP scheme */
(PID.TID 0000.0001)                   T
(PID.TID 0000.0001)     ;
(PID.TID 0000.0001) PTRACERS_stayPositive = /* use Smolarkiewicz Hack for this tracer */
(PID.TID 0000.0001)                   T
(PID.TID 0000.0001)     ;
(PID.TID 0000.0001) PTRACERS_ref = /* Reference vertical profile */
(PID.TID 0000.0001)    23 @  0.000000000000000E+00              /* K =  1: 23 */
(PID.TID 0000.0001)     ;
(PID.TID 0000.0001) PTRACERS_EvPrRn =/* tracer conc. in Evap. & Rain */
(PID.TID 0000.0001)                 1.234567000000000E+05
(PID.TID 0000.0001)     ;
(PID.TID 0000.0001)  -----------------------------------
(PID.TID 0000.0001)  tracer number :   17
(PID.TID 0000.0001) PTRACERS_names = /* Tracer short name */
(PID.TID 0000.0001)               'PIC'
(PID.TID 0000.0001)     ;
(PID.TID 0000.0001) PTRACERS_long_names = /* Tracer long name */
(PID.TID 0000.0001)               ''
(PID.TID 0000.0001)     ;
(PID.TID 0000.0001) PTRACERS_ioLabel = /* tracer IO Label */
(PID.TID 0000.0001)               '17'
(PID.TID 0000.0001)     ;
(PID.TID 0000.0001) PTRACERS_advScheme = /* Advection Scheme */
(PID.TID 0000.0001)                      33
(PID.TID 0000.0001)     ;
(PID.TID 0000.0001) PTRACERS_SOM_Advection = /* tracer uses SOM advection scheme */
(PID.TID 0000.0001)                   F
(PID.TID 0000.0001)     ;
(PID.TID 0000.0001) PTRACERS_ImplVertAdv = /* implicit vert. advection flag */
(PID.TID 0000.0001)                   F
(PID.TID 0000.0001)     ;
(PID.TID 0000.0001) PTRACERS_MultiDimAdv = /* tracer uses Multi-Dim advection */
(PID.TID 0000.0001)                   T
(PID.TID 0000.0001)     ;
(PID.TID 0000.0001) PTRACERS_AdamsBashGtr = /* apply AB on tracer tendency */
(PID.TID 0000.0001)                   F
(PID.TID 0000.0001)     ;
(PID.TID 0000.0001) PTRACERS_AdamsBash_Tr = /* apply AB on passive tracer */
(PID.TID 0000.0001)                   F
(PID.TID 0000.0001)     ;
(PID.TID 0000.0001) PTRACERS_diffKh = /* Laplacian Diffusivity */
(PID.TID 0000.0001)                 0.000000000000000E+00
(PID.TID 0000.0001)     ;
(PID.TID 0000.0001) PTRACERS_diffK4 = /* Biharmonic Diffusivity */
(PID.TID 0000.0001)                 0.000000000000000E+00
(PID.TID 0000.0001)     ;
(PID.TID 0000.0001) PTRACERS_diffKrNr = /* Vertical Diffusivity */
(PID.TID 0000.0001)    23 @  1.000000000000000E-05              /* K =  1: 23 */
(PID.TID 0000.0001)     ;
(PID.TID 0000.0001) PTRACERS_useGMRedi = /* apply GM-Redi */
(PID.TID 0000.0001)                   T
(PID.TID 0000.0001)     ;
(PID.TID 0000.0001) PTRACERS_useDWNSLP = /* apply DOWN-SLOPE Flow */
(PID.TID 0000.0001)                   F
(PID.TID 0000.0001)     ;
(PID.TID 0000.0001) PTRACERS_useKPP = /* apply KPP scheme */
(PID.TID 0000.0001)                   T
(PID.TID 0000.0001)     ;
(PID.TID 0000.0001) PTRACERS_stayPositive = /* use Smolarkiewicz Hack for this tracer */
(PID.TID 0000.0001)                   T
(PID.TID 0000.0001)     ;
(PID.TID 0000.0001) PTRACERS_ref = /* Reference vertical profile */
(PID.TID 0000.0001)    23 @  0.000000000000000E+00              /* K =  1: 23 */
(PID.TID 0000.0001)     ;
(PID.TID 0000.0001) PTRACERS_EvPrRn =/* tracer conc. in Evap. & Rain */
(PID.TID 0000.0001)                 1.234567000000000E+05
(PID.TID 0000.0001)     ;
(PID.TID 0000.0001)  -----------------------------------
(PID.TID 0000.0001)  tracer number :   18
(PID.TID 0000.0001) PTRACERS_names = /* Tracer short name */
(PID.TID 0000.0001)               'ALK'
(PID.TID 0000.0001)     ;
(PID.TID 0000.0001) PTRACERS_long_names = /* Tracer long name */
(PID.TID 0000.0001)               ''
(PID.TID 0000.0001)     ;
(PID.TID 0000.0001) PTRACERS_ioLabel = /* tracer IO Label */
(PID.TID 0000.0001)               '18'
(PID.TID 0000.0001)     ;
(PID.TID 0000.0001) PTRACERS_advScheme = /* Advection Scheme */
(PID.TID 0000.0001)                      33
(PID.TID 0000.0001)     ;
(PID.TID 0000.0001) PTRACERS_SOM_Advection = /* tracer uses SOM advection scheme */
(PID.TID 0000.0001)                   F
(PID.TID 0000.0001)     ;
(PID.TID 0000.0001) PTRACERS_ImplVertAdv = /* implicit vert. advection flag */
(PID.TID 0000.0001)                   F
(PID.TID 0000.0001)     ;
(PID.TID 0000.0001) PTRACERS_MultiDimAdv = /* tracer uses Multi-Dim advection */
(PID.TID 0000.0001)                   T
(PID.TID 0000.0001)     ;
(PID.TID 0000.0001) PTRACERS_AdamsBashGtr = /* apply AB on tracer tendency */
(PID.TID 0000.0001)                   F
(PID.TID 0000.0001)     ;
(PID.TID 0000.0001) PTRACERS_AdamsBash_Tr = /* apply AB on passive tracer */
(PID.TID 0000.0001)                   F
(PID.TID 0000.0001)     ;
(PID.TID 0000.0001) PTRACERS_diffKh = /* Laplacian Diffusivity */
(PID.TID 0000.0001)                 0.000000000000000E+00
(PID.TID 0000.0001)     ;
(PID.TID 0000.0001) PTRACERS_diffK4 = /* Biharmonic Diffusivity */
(PID.TID 0000.0001)                 0.000000000000000E+00
(PID.TID 0000.0001)     ;
(PID.TID 0000.0001) PTRACERS_diffKrNr = /* Vertical Diffusivity */
(PID.TID 0000.0001)    23 @  1.000000000000000E-05              /* K =  1: 23 */
(PID.TID 0000.0001)     ;
(PID.TID 0000.0001) PTRACERS_useGMRedi = /* apply GM-Redi */
(PID.TID 0000.0001)                   T
(PID.TID 0000.0001)     ;
(PID.TID 0000.0001) PTRACERS_useDWNSLP = /* apply DOWN-SLOPE Flow */
(PID.TID 0000.0001)                   F
(PID.TID 0000.0001)     ;
(PID.TID 0000.0001) PTRACERS_useKPP = /* apply KPP scheme */
(PID.TID 0000.0001)                   T
(PID.TID 0000.0001)     ;
(PID.TID 0000.0001) PTRACERS_stayPositive = /* use Smolarkiewicz Hack for this tracer */
(PID.TID 0000.0001)                   T
(PID.TID 0000.0001)     ;
(PID.TID 0000.0001) PTRACERS_ref = /* Reference vertical profile */
(PID.TID 0000.0001)    23 @  0.000000000000000E+00              /* K =  1: 23 */
(PID.TID 0000.0001)     ;
(PID.TID 0000.0001) PTRACERS_EvPrRn =/* tracer conc. in Evap. & Rain */
(PID.TID 0000.0001)                 1.234567000000000E+05
(PID.TID 0000.0001)     ;
(PID.TID 0000.0001)  -----------------------------------
(PID.TID 0000.0001)  tracer number :   19
(PID.TID 0000.0001) PTRACERS_names = /* Tracer short name */
(PID.TID 0000.0001)               'O2'
(PID.TID 0000.0001)     ;
(PID.TID 0000.0001) PTRACERS_long_names = /* Tracer long name */
(PID.TID 0000.0001)               ''
(PID.TID 0000.0001)     ;
(PID.TID 0000.0001) PTRACERS_ioLabel = /* tracer IO Label */
(PID.TID 0000.0001)               '19'
(PID.TID 0000.0001)     ;
(PID.TID 0000.0001) PTRACERS_advScheme = /* Advection Scheme */
(PID.TID 0000.0001)                      33
(PID.TID 0000.0001)     ;
(PID.TID 0000.0001) PTRACERS_SOM_Advection = /* tracer uses SOM advection scheme */
(PID.TID 0000.0001)                   F
(PID.TID 0000.0001)     ;
(PID.TID 0000.0001) PTRACERS_ImplVertAdv = /* implicit vert. advection flag */
(PID.TID 0000.0001)                   F
(PID.TID 0000.0001)     ;
(PID.TID 0000.0001) PTRACERS_MultiDimAdv = /* tracer uses Multi-Dim advection */
(PID.TID 0000.0001)                   T
(PID.TID 0000.0001)     ;
(PID.TID 0000.0001) PTRACERS_AdamsBashGtr = /* apply AB on tracer tendency */
(PID.TID 0000.0001)                   F
(PID.TID 0000.0001)     ;
(PID.TID 0000.0001) PTRACERS_AdamsBash_Tr = /* apply AB on passive tracer */
(PID.TID 0000.0001)                   F
(PID.TID 0000.0001)     ;
(PID.TID 0000.0001) PTRACERS_diffKh = /* Laplacian Diffusivity */
(PID.TID 0000.0001)                 0.000000000000000E+00
(PID.TID 0000.0001)     ;
(PID.TID 0000.0001) PTRACERS_diffK4 = /* Biharmonic Diffusivity */
(PID.TID 0000.0001)                 0.000000000000000E+00
(PID.TID 0000.0001)     ;
(PID.TID 0000.0001) PTRACERS_diffKrNr = /* Vertical Diffusivity */
(PID.TID 0000.0001)    23 @  1.000000000000000E-05              /* K =  1: 23 */
(PID.TID 0000.0001)     ;
(PID.TID 0000.0001) PTRACERS_useGMRedi = /* apply GM-Redi */
(PID.TID 0000.0001)                   T
(PID.TID 0000.0001)     ;
(PID.TID 0000.0001) PTRACERS_useDWNSLP = /* apply DOWN-SLOPE Flow */
(PID.TID 0000.0001)                   F
(PID.TID 0000.0001)     ;
(PID.TID 0000.0001) PTRACERS_useKPP = /* apply KPP scheme */
(PID.TID 0000.0001)                   T
(PID.TID 0000.0001)     ;
(PID.TID 0000.0001) PTRACERS_stayPositive = /* use Smolarkiewicz Hack for this tracer */
(PID.TID 0000.0001)                   T
(PID.TID 0000.0001)     ;
(PID.TID 0000.0001) PTRACERS_ref = /* Reference vertical profile */
(PID.TID 0000.0001)    23 @  0.000000000000000E+00              /* K =  1: 23 */
(PID.TID 0000.0001)     ;
(PID.TID 0000.0001) PTRACERS_EvPrRn =/* tracer conc. in Evap. & Rain */
(PID.TID 0000.0001)                 1.234567000000000E+05
(PID.TID 0000.0001)     ;
(PID.TID 0000.0001)  -----------------------------------
(PID.TID 0000.0001)  tracer number :   20
(PID.TID 0000.0001) PTRACERS_names = /* Tracer short name */
(PID.TID 0000.0001)               'CDOM01'
(PID.TID 0000.0001)     ;
(PID.TID 0000.0001) PTRACERS_long_names = /* Tracer long name */
(PID.TID 0000.0001)               ''
(PID.TID 0000.0001)     ;
(PID.TID 0000.0001) PTRACERS_ioLabel = /* tracer IO Label */
(PID.TID 0000.0001)               '20'
(PID.TID 0000.0001)     ;
(PID.TID 0000.0001) PTRACERS_advScheme = /* Advection Scheme */
(PID.TID 0000.0001)                      33
(PID.TID 0000.0001)     ;
(PID.TID 0000.0001) PTRACERS_SOM_Advection = /* tracer uses SOM advection scheme */
(PID.TID 0000.0001)                   F
(PID.TID 0000.0001)     ;
(PID.TID 0000.0001) PTRACERS_ImplVertAdv = /* implicit vert. advection flag */
(PID.TID 0000.0001)                   F
(PID.TID 0000.0001)     ;
(PID.TID 0000.0001) PTRACERS_MultiDimAdv = /* tracer uses Multi-Dim advection */
(PID.TID 0000.0001)                   T
(PID.TID 0000.0001)     ;
(PID.TID 0000.0001) PTRACERS_AdamsBashGtr = /* apply AB on tracer tendency */
(PID.TID 0000.0001)                   F
(PID.TID 0000.0001)     ;
(PID.TID 0000.0001) PTRACERS_AdamsBash_Tr = /* apply AB on passive tracer */
(PID.TID 0000.0001)                   F
(PID.TID 0000.0001)     ;
(PID.TID 0000.0001) PTRACERS_diffKh = /* Laplacian Diffusivity */
(PID.TID 0000.0001)                 0.000000000000000E+00
(PID.TID 0000.0001)     ;
(PID.TID 0000.0001) PTRACERS_diffK4 = /* Biharmonic Diffusivity */
(PID.TID 0000.0001)                 0.000000000000000E+00
(PID.TID 0000.0001)     ;
(PID.TID 0000.0001) PTRACERS_diffKrNr = /* Vertical Diffusivity */
(PID.TID 0000.0001)    23 @  1.000000000000000E-05              /* K =  1: 23 */
(PID.TID 0000.0001)     ;
(PID.TID 0000.0001) PTRACERS_useGMRedi = /* apply GM-Redi */
(PID.TID 0000.0001)                   T
(PID.TID 0000.0001)     ;
(PID.TID 0000.0001) PTRACERS_useDWNSLP = /* apply DOWN-SLOPE Flow */
(PID.TID 0000.0001)                   F
(PID.TID 0000.0001)     ;
(PID.TID 0000.0001) PTRACERS_useKPP = /* apply KPP scheme */
(PID.TID 0000.0001)                   T
(PID.TID 0000.0001)     ;
(PID.TID 0000.0001) PTRACERS_stayPositive = /* use Smolarkiewicz Hack for this tracer */
(PID.TID 0000.0001)                   T
(PID.TID 0000.0001)     ;
(PID.TID 0000.0001) PTRACERS_ref = /* Reference vertical profile */
(PID.TID 0000.0001)    23 @  0.000000000000000E+00              /* K =  1: 23 */
(PID.TID 0000.0001)     ;
(PID.TID 0000.0001) PTRACERS_EvPrRn =/* tracer conc. in Evap. & Rain */
(PID.TID 0000.0001)                 1.234567000000000E+05
(PID.TID 0000.0001)     ;
(PID.TID 0000.0001)  -----------------------------------
(PID.TID 0000.0001)  tracer number :   21
(PID.TID 0000.0001) PTRACERS_names = /* Tracer short name */
(PID.TID 0000.0001)               'c01'
(PID.TID 0000.0001)     ;
(PID.TID 0000.0001) PTRACERS_long_names = /* Tracer long name */
(PID.TID 0000.0001)               ''
(PID.TID 0000.0001)     ;
(PID.TID 0000.0001) PTRACERS_ioLabel = /* tracer IO Label */
(PID.TID 0000.0001)               '21'
(PID.TID 0000.0001)     ;
(PID.TID 0000.0001) PTRACERS_advScheme = /* Advection Scheme */
(PID.TID 0000.0001)                      33
(PID.TID 0000.0001)     ;
(PID.TID 0000.0001) PTRACERS_SOM_Advection = /* tracer uses SOM advection scheme */
(PID.TID 0000.0001)                   F
(PID.TID 0000.0001)     ;
(PID.TID 0000.0001) PTRACERS_ImplVertAdv = /* implicit vert. advection flag */
(PID.TID 0000.0001)                   F
(PID.TID 0000.0001)     ;
(PID.TID 0000.0001) PTRACERS_MultiDimAdv = /* tracer uses Multi-Dim advection */
(PID.TID 0000.0001)                   T
(PID.TID 0000.0001)     ;
(PID.TID 0000.0001) PTRACERS_AdamsBashGtr = /* apply AB on tracer tendency */
(PID.TID 0000.0001)                   F
(PID.TID 0000.0001)     ;
(PID.TID 0000.0001) PTRACERS_AdamsBash_Tr = /* apply AB on passive tracer */
(PID.TID 0000.0001)                   F
(PID.TID 0000.0001)     ;
(PID.TID 0000.0001) PTRACERS_diffKh = /* Laplacian Diffusivity */
(PID.TID 0000.0001)                 0.000000000000000E+00
(PID.TID 0000.0001)     ;
(PID.TID 0000.0001) PTRACERS_diffK4 = /* Biharmonic Diffusivity */
(PID.TID 0000.0001)                 0.000000000000000E+00
(PID.TID 0000.0001)     ;
(PID.TID 0000.0001) PTRACERS_diffKrNr = /* Vertical Diffusivity */
(PID.TID 0000.0001)    23 @  1.000000000000000E-05              /* K =  1: 23 */
(PID.TID 0000.0001)     ;
(PID.TID 0000.0001) PTRACERS_useGMRedi = /* apply GM-Redi */
(PID.TID 0000.0001)                   T
(PID.TID 0000.0001)     ;
(PID.TID 0000.0001) PTRACERS_useDWNSLP = /* apply DOWN-SLOPE Flow */
(PID.TID 0000.0001)                   F
(PID.TID 0000.0001)     ;
(PID.TID 0000.0001) PTRACERS_useKPP = /* apply KPP scheme */
(PID.TID 0000.0001)                   T
(PID.TID 0000.0001)     ;
(PID.TID 0000.0001) PTRACERS_stayPositive = /* use Smolarkiewicz Hack for this tracer */
(PID.TID 0000.0001)                   T
(PID.TID 0000.0001)     ;
(PID.TID 0000.0001) PTRACERS_ref = /* Reference vertical profile */
(PID.TID 0000.0001)    23 @  0.000000000000000E+00              /* K =  1: 23 */
(PID.TID 0000.0001)     ;
(PID.TID 0000.0001) PTRACERS_EvPrRn =/* tracer conc. in Evap. & Rain */
(PID.TID 0000.0001)                 1.234567000000000E+05
(PID.TID 0000.0001)     ;
(PID.TID 0000.0001)  -----------------------------------
(PID.TID 0000.0001)  tracer number :   22
(PID.TID 0000.0001) PTRACERS_names = /* Tracer short name */
(PID.TID 0000.0001)               'c02'
(PID.TID 0000.0001)     ;
(PID.TID 0000.0001) PTRACERS_long_names = /* Tracer long name */
(PID.TID 0000.0001)               ''
(PID.TID 0000.0001)     ;
(PID.TID 0000.0001) PTRACERS_ioLabel = /* tracer IO Label */
(PID.TID 0000.0001)               '22'
(PID.TID 0000.0001)     ;
(PID.TID 0000.0001) PTRACERS_advScheme = /* Advection Scheme */
(PID.TID 0000.0001)                      33
(PID.TID 0000.0001)     ;
(PID.TID 0000.0001) PTRACERS_SOM_Advection = /* tracer uses SOM advection scheme */
(PID.TID 0000.0001)                   F
(PID.TID 0000.0001)     ;
(PID.TID 0000.0001) PTRACERS_ImplVertAdv = /* implicit vert. advection flag */
(PID.TID 0000.0001)                   F
(PID.TID 0000.0001)     ;
(PID.TID 0000.0001) PTRACERS_MultiDimAdv = /* tracer uses Multi-Dim advection */
(PID.TID 0000.0001)                   T
(PID.TID 0000.0001)     ;
(PID.TID 0000.0001) PTRACERS_AdamsBashGtr = /* apply AB on tracer tendency */
(PID.TID 0000.0001)                   F
(PID.TID 0000.0001)     ;
(PID.TID 0000.0001) PTRACERS_AdamsBash_Tr = /* apply AB on passive tracer */
(PID.TID 0000.0001)                   F
(PID.TID 0000.0001)     ;
(PID.TID 0000.0001) PTRACERS_diffKh = /* Laplacian Diffusivity */
(PID.TID 0000.0001)                 0.000000000000000E+00
(PID.TID 0000.0001)     ;
(PID.TID 0000.0001) PTRACERS_diffK4 = /* Biharmonic Diffusivity */
(PID.TID 0000.0001)                 0.000000000000000E+00
(PID.TID 0000.0001)     ;
(PID.TID 0000.0001) PTRACERS_diffKrNr = /* Vertical Diffusivity */
(PID.TID 0000.0001)    23 @  1.000000000000000E-05              /* K =  1: 23 */
(PID.TID 0000.0001)     ;
(PID.TID 0000.0001) PTRACERS_useGMRedi = /* apply GM-Redi */
(PID.TID 0000.0001)                   T
(PID.TID 0000.0001)     ;
(PID.TID 0000.0001) PTRACERS_useDWNSLP = /* apply DOWN-SLOPE Flow */
(PID.TID 0000.0001)                   F
(PID.TID 0000.0001)     ;
(PID.TID 0000.0001) PTRACERS_useKPP = /* apply KPP scheme */
(PID.TID 0000.0001)                   T
(PID.TID 0000.0001)     ;
(PID.TID 0000.0001) PTRACERS_stayPositive = /* use Smolarkiewicz Hack for this tracer */
(PID.TID 0000.0001)                   T
(PID.TID 0000.0001)     ;
(PID.TID 0000.0001) PTRACERS_ref = /* Reference vertical profile */
(PID.TID 0000.0001)    23 @  0.000000000000000E+00              /* K =  1: 23 */
(PID.TID 0000.0001)     ;
(PID.TID 0000.0001) PTRACERS_EvPrRn =/* tracer conc. in Evap. & Rain */
(PID.TID 0000.0001)                 1.234567000000000E+05
(PID.TID 0000.0001)     ;
(PID.TID 0000.0001)  -----------------------------------
(PID.TID 0000.0001)  tracer number :   23
(PID.TID 0000.0001) PTRACERS_names = /* Tracer short name */
(PID.TID 0000.0001)               'c03'
(PID.TID 0000.0001)     ;
(PID.TID 0000.0001) PTRACERS_long_names = /* Tracer long name */
(PID.TID 0000.0001)               ''
(PID.TID 0000.0001)     ;
(PID.TID 0000.0001) PTRACERS_ioLabel = /* tracer IO Label */
(PID.TID 0000.0001)               '23'
(PID.TID 0000.0001)     ;
(PID.TID 0000.0001) PTRACERS_advScheme = /* Advection Scheme */
(PID.TID 0000.0001)                      33
(PID.TID 0000.0001)     ;
(PID.TID 0000.0001) PTRACERS_SOM_Advection = /* tracer uses SOM advection scheme */
(PID.TID 0000.0001)                   F
(PID.TID 0000.0001)     ;
(PID.TID 0000.0001) PTRACERS_ImplVertAdv = /* implicit vert. advection flag */
(PID.TID 0000.0001)                   F
(PID.TID 0000.0001)     ;
(PID.TID 0000.0001) PTRACERS_MultiDimAdv = /* tracer uses Multi-Dim advection */
(PID.TID 0000.0001)                   T
(PID.TID 0000.0001)     ;
(PID.TID 0000.0001) PTRACERS_AdamsBashGtr = /* apply AB on tracer tendency */
(PID.TID 0000.0001)                   F
(PID.TID 0000.0001)     ;
(PID.TID 0000.0001) PTRACERS_AdamsBash_Tr = /* apply AB on passive tracer */
(PID.TID 0000.0001)                   F
(PID.TID 0000.0001)     ;
(PID.TID 0000.0001) PTRACERS_diffKh = /* Laplacian Diffusivity */
(PID.TID 0000.0001)                 0.000000000000000E+00
(PID.TID 0000.0001)     ;
(PID.TID 0000.0001) PTRACERS_diffK4 = /* Biharmonic Diffusivity */
(PID.TID 0000.0001)                 0.000000000000000E+00
(PID.TID 0000.0001)     ;
(PID.TID 0000.0001) PTRACERS_diffKrNr = /* Vertical Diffusivity */
(PID.TID 0000.0001)    23 @  1.000000000000000E-05              /* K =  1: 23 */
(PID.TID 0000.0001)     ;
(PID.TID 0000.0001) PTRACERS_useGMRedi = /* apply GM-Redi */
(PID.TID 0000.0001)                   T
(PID.TID 0000.0001)     ;
(PID.TID 0000.0001) PTRACERS_useDWNSLP = /* apply DOWN-SLOPE Flow */
(PID.TID 0000.0001)                   F
(PID.TID 0000.0001)     ;
(PID.TID 0000.0001) PTRACERS_useKPP = /* apply KPP scheme */
(PID.TID 0000.0001)                   T
(PID.TID 0000.0001)     ;
(PID.TID 0000.0001) PTRACERS_stayPositive = /* use Smolarkiewicz Hack for this tracer */
(PID.TID 0000.0001)                   T
(PID.TID 0000.0001)     ;
(PID.TID 0000.0001) PTRACERS_ref = /* Reference vertical profile */
(PID.TID 0000.0001)    23 @  0.000000000000000E+00              /* K =  1: 23 */
(PID.TID 0000.0001)     ;
(PID.TID 0000.0001) PTRACERS_EvPrRn =/* tracer conc. in Evap. & Rain */
(PID.TID 0000.0001)                 1.234567000000000E+05
(PID.TID 0000.0001)     ;
(PID.TID 0000.0001)  -----------------------------------
(PID.TID 0000.0001)  tracer number :   24
(PID.TID 0000.0001) PTRACERS_names = /* Tracer short name */
(PID.TID 0000.0001)               'c04'
(PID.TID 0000.0001)     ;
(PID.TID 0000.0001) PTRACERS_long_names = /* Tracer long name */
(PID.TID 0000.0001)               ''
(PID.TID 0000.0001)     ;
(PID.TID 0000.0001) PTRACERS_ioLabel = /* tracer IO Label */
(PID.TID 0000.0001)               '24'
(PID.TID 0000.0001)     ;
(PID.TID 0000.0001) PTRACERS_advScheme = /* Advection Scheme */
(PID.TID 0000.0001)                      33
(PID.TID 0000.0001)     ;
(PID.TID 0000.0001) PTRACERS_SOM_Advection = /* tracer uses SOM advection scheme */
(PID.TID 0000.0001)                   F
(PID.TID 0000.0001)     ;
(PID.TID 0000.0001) PTRACERS_ImplVertAdv = /* implicit vert. advection flag */
(PID.TID 0000.0001)                   F
(PID.TID 0000.0001)     ;
(PID.TID 0000.0001) PTRACERS_MultiDimAdv = /* tracer uses Multi-Dim advection */
(PID.TID 0000.0001)                   T
(PID.TID 0000.0001)     ;
(PID.TID 0000.0001) PTRACERS_AdamsBashGtr = /* apply AB on tracer tendency */
(PID.TID 0000.0001)                   F
(PID.TID 0000.0001)     ;
(PID.TID 0000.0001) PTRACERS_AdamsBash_Tr = /* apply AB on passive tracer */
(PID.TID 0000.0001)                   F
(PID.TID 0000.0001)     ;
(PID.TID 0000.0001) PTRACERS_diffKh = /* Laplacian Diffusivity */
(PID.TID 0000.0001)                 0.000000000000000E+00
(PID.TID 0000.0001)     ;
(PID.TID 0000.0001) PTRACERS_diffK4 = /* Biharmonic Diffusivity */
(PID.TID 0000.0001)                 0.000000000000000E+00
(PID.TID 0000.0001)     ;
(PID.TID 0000.0001) PTRACERS_diffKrNr = /* Vertical Diffusivity */
(PID.TID 0000.0001)    23 @  1.000000000000000E-05              /* K =  1: 23 */
(PID.TID 0000.0001)     ;
(PID.TID 0000.0001) PTRACERS_useGMRedi = /* apply GM-Redi */
(PID.TID 0000.0001)                   T
(PID.TID 0000.0001)     ;
(PID.TID 0000.0001) PTRACERS_useDWNSLP = /* apply DOWN-SLOPE Flow */
(PID.TID 0000.0001)                   F
(PID.TID 0000.0001)     ;
(PID.TID 0000.0001) PTRACERS_useKPP = /* apply KPP scheme */
(PID.TID 0000.0001)                   T
(PID.TID 0000.0001)     ;
(PID.TID 0000.0001) PTRACERS_stayPositive = /* use Smolarkiewicz Hack for this tracer */
(PID.TID 0000.0001)                   T
(PID.TID 0000.0001)     ;
(PID.TID 0000.0001) PTRACERS_ref = /* Reference vertical profile */
(PID.TID 0000.0001)    23 @  0.000000000000000E+00              /* K =  1: 23 */
(PID.TID 0000.0001)     ;
(PID.TID 0000.0001) PTRACERS_EvPrRn =/* tracer conc. in Evap. & Rain */
(PID.TID 0000.0001)                 1.234567000000000E+05
(PID.TID 0000.0001)     ;
(PID.TID 0000.0001)  -----------------------------------
(PID.TID 0000.0001)  tracer number :   25
(PID.TID 0000.0001) PTRACERS_names = /* Tracer short name */
(PID.TID 0000.0001)               'n01'
(PID.TID 0000.0001)     ;
(PID.TID 0000.0001) PTRACERS_long_names = /* Tracer long name */
(PID.TID 0000.0001)               ''
(PID.TID 0000.0001)     ;
(PID.TID 0000.0001) PTRACERS_ioLabel = /* tracer IO Label */
(PID.TID 0000.0001)               '25'
(PID.TID 0000.0001)     ;
(PID.TID 0000.0001) PTRACERS_advScheme = /* Advection Scheme */
(PID.TID 0000.0001)                      33
(PID.TID 0000.0001)     ;
(PID.TID 0000.0001) PTRACERS_SOM_Advection = /* tracer uses SOM advection scheme */
(PID.TID 0000.0001)                   F
(PID.TID 0000.0001)     ;
(PID.TID 0000.0001) PTRACERS_ImplVertAdv = /* implicit vert. advection flag */
(PID.TID 0000.0001)                   F
(PID.TID 0000.0001)     ;
(PID.TID 0000.0001) PTRACERS_MultiDimAdv = /* tracer uses Multi-Dim advection */
(PID.TID 0000.0001)                   T
(PID.TID 0000.0001)     ;
(PID.TID 0000.0001) PTRACERS_AdamsBashGtr = /* apply AB on tracer tendency */
(PID.TID 0000.0001)                   F
(PID.TID 0000.0001)     ;
(PID.TID 0000.0001) PTRACERS_AdamsBash_Tr = /* apply AB on passive tracer */
(PID.TID 0000.0001)                   F
(PID.TID 0000.0001)     ;
(PID.TID 0000.0001) PTRACERS_diffKh = /* Laplacian Diffusivity */
(PID.TID 0000.0001)                 0.000000000000000E+00
(PID.TID 0000.0001)     ;
(PID.TID 0000.0001) PTRACERS_diffK4 = /* Biharmonic Diffusivity */
(PID.TID 0000.0001)                 0.000000000000000E+00
(PID.TID 0000.0001)     ;
(PID.TID 0000.0001) PTRACERS_diffKrNr = /* Vertical Diffusivity */
(PID.TID 0000.0001)    23 @  1.000000000000000E-05              /* K =  1: 23 */
(PID.TID 0000.0001)     ;
(PID.TID 0000.0001) PTRACERS_useGMRedi = /* apply GM-Redi */
(PID.TID 0000.0001)                   T
(PID.TID 0000.0001)     ;
(PID.TID 0000.0001) PTRACERS_useDWNSLP = /* apply DOWN-SLOPE Flow */
(PID.TID 0000.0001)                   F
(PID.TID 0000.0001)     ;
(PID.TID 0000.0001) PTRACERS_useKPP = /* apply KPP scheme */
(PID.TID 0000.0001)                   T
(PID.TID 0000.0001)     ;
(PID.TID 0000.0001) PTRACERS_stayPositive = /* use Smolarkiewicz Hack for this tracer */
(PID.TID 0000.0001)                   T
(PID.TID 0000.0001)     ;
(PID.TID 0000.0001) PTRACERS_ref = /* Reference vertical profile */
(PID.TID 0000.0001)    23 @  0.000000000000000E+00              /* K =  1: 23 */
(PID.TID 0000.0001)     ;
(PID.TID 0000.0001) PTRACERS_EvPrRn =/* tracer conc. in Evap. & Rain */
(PID.TID 0000.0001)                 1.234567000000000E+05
(PID.TID 0000.0001)     ;
(PID.TID 0000.0001)  -----------------------------------
(PID.TID 0000.0001)  tracer number :   26
(PID.TID 0000.0001) PTRACERS_names = /* Tracer short name */
(PID.TID 0000.0001)               'n02'
(PID.TID 0000.0001)     ;
(PID.TID 0000.0001) PTRACERS_long_names = /* Tracer long name */
(PID.TID 0000.0001)               ''
(PID.TID 0000.0001)     ;
(PID.TID 0000.0001) PTRACERS_ioLabel = /* tracer IO Label */
(PID.TID 0000.0001)               '26'
(PID.TID 0000.0001)     ;
(PID.TID 0000.0001) PTRACERS_advScheme = /* Advection Scheme */
(PID.TID 0000.0001)                      33
(PID.TID 0000.0001)     ;
(PID.TID 0000.0001) PTRACERS_SOM_Advection = /* tracer uses SOM advection scheme */
(PID.TID 0000.0001)                   F
(PID.TID 0000.0001)     ;
(PID.TID 0000.0001) PTRACERS_ImplVertAdv = /* implicit vert. advection flag */
(PID.TID 0000.0001)                   F
(PID.TID 0000.0001)     ;
(PID.TID 0000.0001) PTRACERS_MultiDimAdv = /* tracer uses Multi-Dim advection */
(PID.TID 0000.0001)                   T
(PID.TID 0000.0001)     ;
(PID.TID 0000.0001) PTRACERS_AdamsBashGtr = /* apply AB on tracer tendency */
(PID.TID 0000.0001)                   F
(PID.TID 0000.0001)     ;
(PID.TID 0000.0001) PTRACERS_AdamsBash_Tr = /* apply AB on passive tracer */
(PID.TID 0000.0001)                   F
(PID.TID 0000.0001)     ;
(PID.TID 0000.0001) PTRACERS_diffKh = /* Laplacian Diffusivity */
(PID.TID 0000.0001)                 0.000000000000000E+00
(PID.TID 0000.0001)     ;
(PID.TID 0000.0001) PTRACERS_diffK4 = /* Biharmonic Diffusivity */
(PID.TID 0000.0001)                 0.000000000000000E+00
(PID.TID 0000.0001)     ;
(PID.TID 0000.0001) PTRACERS_diffKrNr = /* Vertical Diffusivity */
(PID.TID 0000.0001)    23 @  1.000000000000000E-05              /* K =  1: 23 */
(PID.TID 0000.0001)     ;
(PID.TID 0000.0001) PTRACERS_useGMRedi = /* apply GM-Redi */
(PID.TID 0000.0001)                   T
(PID.TID 0000.0001)     ;
(PID.TID 0000.0001) PTRACERS_useDWNSLP = /* apply DOWN-SLOPE Flow */
(PID.TID 0000.0001)                   F
(PID.TID 0000.0001)     ;
(PID.TID 0000.0001) PTRACERS_useKPP = /* apply KPP scheme */
(PID.TID 0000.0001)                   T
(PID.TID 0000.0001)     ;
(PID.TID 0000.0001) PTRACERS_stayPositive = /* use Smolarkiewicz Hack for this tracer */
(PID.TID 0000.0001)                   T
(PID.TID 0000.0001)     ;
(PID.TID 0000.0001) PTRACERS_ref = /* Reference vertical profile */
(PID.TID 0000.0001)    23 @  0.000000000000000E+00              /* K =  1: 23 */
(PID.TID 0000.0001)     ;
(PID.TID 0000.0001) PTRACERS_EvPrRn =/* tracer conc. in Evap. & Rain */
(PID.TID 0000.0001)                 1.234567000000000E+05
(PID.TID 0000.0001)     ;
(PID.TID 0000.0001)  -----------------------------------
(PID.TID 0000.0001)  tracer number :   27
(PID.TID 0000.0001) PTRACERS_names = /* Tracer short name */
(PID.TID 0000.0001)               'n03'
(PID.TID 0000.0001)     ;
(PID.TID 0000.0001) PTRACERS_long_names = /* Tracer long name */
(PID.TID 0000.0001)               ''
(PID.TID 0000.0001)     ;
(PID.TID 0000.0001) PTRACERS_ioLabel = /* tracer IO Label */
(PID.TID 0000.0001)               '27'
(PID.TID 0000.0001)     ;
(PID.TID 0000.0001) PTRACERS_advScheme = /* Advection Scheme */
(PID.TID 0000.0001)                      33
(PID.TID 0000.0001)     ;
(PID.TID 0000.0001) PTRACERS_SOM_Advection = /* tracer uses SOM advection scheme */
(PID.TID 0000.0001)                   F
(PID.TID 0000.0001)     ;
(PID.TID 0000.0001) PTRACERS_ImplVertAdv = /* implicit vert. advection flag */
(PID.TID 0000.0001)                   F
(PID.TID 0000.0001)     ;
(PID.TID 0000.0001) PTRACERS_MultiDimAdv = /* tracer uses Multi-Dim advection */
(PID.TID 0000.0001)                   T
(PID.TID 0000.0001)     ;
(PID.TID 0000.0001) PTRACERS_AdamsBashGtr = /* apply AB on tracer tendency */
(PID.TID 0000.0001)                   F
(PID.TID 0000.0001)     ;
(PID.TID 0000.0001) PTRACERS_AdamsBash_Tr = /* apply AB on passive tracer */
(PID.TID 0000.0001)                   F
(PID.TID 0000.0001)     ;
(PID.TID 0000.0001) PTRACERS_diffKh = /* Laplacian Diffusivity */
(PID.TID 0000.0001)                 0.000000000000000E+00
(PID.TID 0000.0001)     ;
(PID.TID 0000.0001) PTRACERS_diffK4 = /* Biharmonic Diffusivity */
(PID.TID 0000.0001)                 0.000000000000000E+00
(PID.TID 0000.0001)     ;
(PID.TID 0000.0001) PTRACERS_diffKrNr = /* Vertical Diffusivity */
(PID.TID 0000.0001)    23 @  1.000000000000000E-05              /* K =  1: 23 */
(PID.TID 0000.0001)     ;
(PID.TID 0000.0001) PTRACERS_useGMRedi = /* apply GM-Redi */
(PID.TID 0000.0001)                   T
(PID.TID 0000.0001)     ;
(PID.TID 0000.0001) PTRACERS_useDWNSLP = /* apply DOWN-SLOPE Flow */
(PID.TID 0000.0001)                   F
(PID.TID 0000.0001)     ;
(PID.TID 0000.0001) PTRACERS_useKPP = /* apply KPP scheme */
(PID.TID 0000.0001)                   T
(PID.TID 0000.0001)     ;
(PID.TID 0000.0001) PTRACERS_stayPositive = /* use Smolarkiewicz Hack for this tracer */
(PID.TID 0000.0001)                   T
(PID.TID 0000.0001)     ;
(PID.TID 0000.0001) PTRACERS_ref = /* Reference vertical profile */
(PID.TID 0000.0001)    23 @  0.000000000000000E+00              /* K =  1: 23 */
(PID.TID 0000.0001)     ;
(PID.TID 0000.0001) PTRACERS_EvPrRn =/* tracer conc. in Evap. & Rain */
(PID.TID 0000.0001)                 1.234567000000000E+05
(PID.TID 0000.0001)     ;
(PID.TID 0000.0001)  -----------------------------------
(PID.TID 0000.0001)  tracer number :   28
(PID.TID 0000.0001) PTRACERS_names = /* Tracer short name */
(PID.TID 0000.0001)               'n04'
(PID.TID 0000.0001)     ;
(PID.TID 0000.0001) PTRACERS_long_names = /* Tracer long name */
(PID.TID 0000.0001)               ''
(PID.TID 0000.0001)     ;
(PID.TID 0000.0001) PTRACERS_ioLabel = /* tracer IO Label */
(PID.TID 0000.0001)               '28'
(PID.TID 0000.0001)     ;
(PID.TID 0000.0001) PTRACERS_advScheme = /* Advection Scheme */
(PID.TID 0000.0001)                      33
(PID.TID 0000.0001)     ;
(PID.TID 0000.0001) PTRACERS_SOM_Advection = /* tracer uses SOM advection scheme */
(PID.TID 0000.0001)                   F
(PID.TID 0000.0001)     ;
(PID.TID 0000.0001) PTRACERS_ImplVertAdv = /* implicit vert. advection flag */
(PID.TID 0000.0001)                   F
(PID.TID 0000.0001)     ;
(PID.TID 0000.0001) PTRACERS_MultiDimAdv = /* tracer uses Multi-Dim advection */
(PID.TID 0000.0001)                   T
(PID.TID 0000.0001)     ;
(PID.TID 0000.0001) PTRACERS_AdamsBashGtr = /* apply AB on tracer tendency */
(PID.TID 0000.0001)                   F
(PID.TID 0000.0001)     ;
(PID.TID 0000.0001) PTRACERS_AdamsBash_Tr = /* apply AB on passive tracer */
(PID.TID 0000.0001)                   F
(PID.TID 0000.0001)     ;
(PID.TID 0000.0001) PTRACERS_diffKh = /* Laplacian Diffusivity */
(PID.TID 0000.0001)                 0.000000000000000E+00
(PID.TID 0000.0001)     ;
(PID.TID 0000.0001) PTRACERS_diffK4 = /* Biharmonic Diffusivity */
(PID.TID 0000.0001)                 0.000000000000000E+00
(PID.TID 0000.0001)     ;
(PID.TID 0000.0001) PTRACERS_diffKrNr = /* Vertical Diffusivity */
(PID.TID 0000.0001)    23 @  1.000000000000000E-05              /* K =  1: 23 */
(PID.TID 0000.0001)     ;
(PID.TID 0000.0001) PTRACERS_useGMRedi = /* apply GM-Redi */
(PID.TID 0000.0001)                   T
(PID.TID 0000.0001)     ;
(PID.TID 0000.0001) PTRACERS_useDWNSLP = /* apply DOWN-SLOPE Flow */
(PID.TID 0000.0001)                   F
(PID.TID 0000.0001)     ;
(PID.TID 0000.0001) PTRACERS_useKPP = /* apply KPP scheme */
(PID.TID 0000.0001)                   T
(PID.TID 0000.0001)     ;
(PID.TID 0000.0001) PTRACERS_stayPositive = /* use Smolarkiewicz Hack for this tracer */
(PID.TID 0000.0001)                   T
(PID.TID 0000.0001)     ;
(PID.TID 0000.0001) PTRACERS_ref = /* Reference vertical profile */
(PID.TID 0000.0001)    23 @  0.000000000000000E+00              /* K =  1: 23 */
(PID.TID 0000.0001)     ;
(PID.TID 0000.0001) PTRACERS_EvPrRn =/* tracer conc. in Evap. & Rain */
(PID.TID 0000.0001)                 1.234567000000000E+05
(PID.TID 0000.0001)     ;
(PID.TID 0000.0001)  -----------------------------------
(PID.TID 0000.0001)  tracer number :   29
(PID.TID 0000.0001) PTRACERS_names = /* Tracer short name */
(PID.TID 0000.0001)               'p01'
(PID.TID 0000.0001)     ;
(PID.TID 0000.0001) PTRACERS_long_names = /* Tracer long name */
(PID.TID 0000.0001)               ''
(PID.TID 0000.0001)     ;
(PID.TID 0000.0001) PTRACERS_ioLabel = /* tracer IO Label */
(PID.TID 0000.0001)               '29'
(PID.TID 0000.0001)     ;
(PID.TID 0000.0001) PTRACERS_advScheme = /* Advection Scheme */
(PID.TID 0000.0001)                      33
(PID.TID 0000.0001)     ;
(PID.TID 0000.0001) PTRACERS_SOM_Advection = /* tracer uses SOM advection scheme */
(PID.TID 0000.0001)                   F
(PID.TID 0000.0001)     ;
(PID.TID 0000.0001) PTRACERS_ImplVertAdv = /* implicit vert. advection flag */
(PID.TID 0000.0001)                   F
(PID.TID 0000.0001)     ;
(PID.TID 0000.0001) PTRACERS_MultiDimAdv = /* tracer uses Multi-Dim advection */
(PID.TID 0000.0001)                   T
(PID.TID 0000.0001)     ;
(PID.TID 0000.0001) PTRACERS_AdamsBashGtr = /* apply AB on tracer tendency */
(PID.TID 0000.0001)                   F
(PID.TID 0000.0001)     ;
(PID.TID 0000.0001) PTRACERS_AdamsBash_Tr = /* apply AB on passive tracer */
(PID.TID 0000.0001)                   F
(PID.TID 0000.0001)     ;
(PID.TID 0000.0001) PTRACERS_diffKh = /* Laplacian Diffusivity */
(PID.TID 0000.0001)                 0.000000000000000E+00
(PID.TID 0000.0001)     ;
(PID.TID 0000.0001) PTRACERS_diffK4 = /* Biharmonic Diffusivity */
(PID.TID 0000.0001)                 0.000000000000000E+00
(PID.TID 0000.0001)     ;
(PID.TID 0000.0001) PTRACERS_diffKrNr = /* Vertical Diffusivity */
(PID.TID 0000.0001)    23 @  1.000000000000000E-05              /* K =  1: 23 */
(PID.TID 0000.0001)     ;
(PID.TID 0000.0001) PTRACERS_useGMRedi = /* apply GM-Redi */
(PID.TID 0000.0001)                   T
(PID.TID 0000.0001)     ;
(PID.TID 0000.0001) PTRACERS_useDWNSLP = /* apply DOWN-SLOPE Flow */
(PID.TID 0000.0001)                   F
(PID.TID 0000.0001)     ;
(PID.TID 0000.0001) PTRACERS_useKPP = /* apply KPP scheme */
(PID.TID 0000.0001)                   T
(PID.TID 0000.0001)     ;
(PID.TID 0000.0001) PTRACERS_stayPositive = /* use Smolarkiewicz Hack for this tracer */
(PID.TID 0000.0001)                   T
(PID.TID 0000.0001)     ;
(PID.TID 0000.0001) PTRACERS_ref = /* Reference vertical profile */
(PID.TID 0000.0001)    23 @  0.000000000000000E+00              /* K =  1: 23 */
(PID.TID 0000.0001)     ;
(PID.TID 0000.0001) PTRACERS_EvPrRn =/* tracer conc. in Evap. & Rain */
(PID.TID 0000.0001)                 1.234567000000000E+05
(PID.TID 0000.0001)     ;
(PID.TID 0000.0001)  -----------------------------------
(PID.TID 0000.0001)  tracer number :   30
(PID.TID 0000.0001) PTRACERS_names = /* Tracer short name */
(PID.TID 0000.0001)               'p02'
(PID.TID 0000.0001)     ;
(PID.TID 0000.0001) PTRACERS_long_names = /* Tracer long name */
(PID.TID 0000.0001)               ''
(PID.TID 0000.0001)     ;
(PID.TID 0000.0001) PTRACERS_ioLabel = /* tracer IO Label */
(PID.TID 0000.0001)               '30'
(PID.TID 0000.0001)     ;
(PID.TID 0000.0001) PTRACERS_advScheme = /* Advection Scheme */
(PID.TID 0000.0001)                      33
(PID.TID 0000.0001)     ;
(PID.TID 0000.0001) PTRACERS_SOM_Advection = /* tracer uses SOM advection scheme */
(PID.TID 0000.0001)                   F
(PID.TID 0000.0001)     ;
(PID.TID 0000.0001) PTRACERS_ImplVertAdv = /* implicit vert. advection flag */
(PID.TID 0000.0001)                   F
(PID.TID 0000.0001)     ;
(PID.TID 0000.0001) PTRACERS_MultiDimAdv = /* tracer uses Multi-Dim advection */
(PID.TID 0000.0001)                   T
(PID.TID 0000.0001)     ;
(PID.TID 0000.0001) PTRACERS_AdamsBashGtr = /* apply AB on tracer tendency */
(PID.TID 0000.0001)                   F
(PID.TID 0000.0001)     ;
(PID.TID 0000.0001) PTRACERS_AdamsBash_Tr = /* apply AB on passive tracer */
(PID.TID 0000.0001)                   F
(PID.TID 0000.0001)     ;
(PID.TID 0000.0001) PTRACERS_diffKh = /* Laplacian Diffusivity */
(PID.TID 0000.0001)                 0.000000000000000E+00
(PID.TID 0000.0001)     ;
(PID.TID 0000.0001) PTRACERS_diffK4 = /* Biharmonic Diffusivity */
(PID.TID 0000.0001)                 0.000000000000000E+00
(PID.TID 0000.0001)     ;
(PID.TID 0000.0001) PTRACERS_diffKrNr = /* Vertical Diffusivity */
(PID.TID 0000.0001)    23 @  1.000000000000000E-05              /* K =  1: 23 */
(PID.TID 0000.0001)     ;
(PID.TID 0000.0001) PTRACERS_useGMRedi = /* apply GM-Redi */
(PID.TID 0000.0001)                   T
(PID.TID 0000.0001)     ;
(PID.TID 0000.0001) PTRACERS_useDWNSLP = /* apply DOWN-SLOPE Flow */
(PID.TID 0000.0001)                   F
(PID.TID 0000.0001)     ;
(PID.TID 0000.0001) PTRACERS_useKPP = /* apply KPP scheme */
(PID.TID 0000.0001)                   T
(PID.TID 0000.0001)     ;
(PID.TID 0000.0001) PTRACERS_stayPositive = /* use Smolarkiewicz Hack for this tracer */
(PID.TID 0000.0001)                   T
(PID.TID 0000.0001)     ;
(PID.TID 0000.0001) PTRACERS_ref = /* Reference vertical profile */
(PID.TID 0000.0001)    23 @  0.000000000000000E+00              /* K =  1: 23 */
(PID.TID 0000.0001)     ;
(PID.TID 0000.0001) PTRACERS_EvPrRn =/* tracer conc. in Evap. & Rain */
(PID.TID 0000.0001)                 1.234567000000000E+05
(PID.TID 0000.0001)     ;
(PID.TID 0000.0001)  -----------------------------------
(PID.TID 0000.0001)  tracer number :   31
(PID.TID 0000.0001) PTRACERS_names = /* Tracer short name */
(PID.TID 0000.0001)               'p03'
(PID.TID 0000.0001)     ;
(PID.TID 0000.0001) PTRACERS_long_names = /* Tracer long name */
(PID.TID 0000.0001)               ''
(PID.TID 0000.0001)     ;
(PID.TID 0000.0001) PTRACERS_ioLabel = /* tracer IO Label */
(PID.TID 0000.0001)               '31'
(PID.TID 0000.0001)     ;
(PID.TID 0000.0001) PTRACERS_advScheme = /* Advection Scheme */
(PID.TID 0000.0001)                      33
(PID.TID 0000.0001)     ;
(PID.TID 0000.0001) PTRACERS_SOM_Advection = /* tracer uses SOM advection scheme */
(PID.TID 0000.0001)                   F
(PID.TID 0000.0001)     ;
(PID.TID 0000.0001) PTRACERS_ImplVertAdv = /* implicit vert. advection flag */
(PID.TID 0000.0001)                   F
(PID.TID 0000.0001)     ;
(PID.TID 0000.0001) PTRACERS_MultiDimAdv = /* tracer uses Multi-Dim advection */
(PID.TID 0000.0001)                   T
(PID.TID 0000.0001)     ;
(PID.TID 0000.0001) PTRACERS_AdamsBashGtr = /* apply AB on tracer tendency */
(PID.TID 0000.0001)                   F
(PID.TID 0000.0001)     ;
(PID.TID 0000.0001) PTRACERS_AdamsBash_Tr = /* apply AB on passive tracer */
(PID.TID 0000.0001)                   F
(PID.TID 0000.0001)     ;
(PID.TID 0000.0001) PTRACERS_diffKh = /* Laplacian Diffusivity */
(PID.TID 0000.0001)                 0.000000000000000E+00
(PID.TID 0000.0001)     ;
(PID.TID 0000.0001) PTRACERS_diffK4 = /* Biharmonic Diffusivity */
(PID.TID 0000.0001)                 0.000000000000000E+00
(PID.TID 0000.0001)     ;
(PID.TID 0000.0001) PTRACERS_diffKrNr = /* Vertical Diffusivity */
(PID.TID 0000.0001)    23 @  1.000000000000000E-05              /* K =  1: 23 */
(PID.TID 0000.0001)     ;
(PID.TID 0000.0001) PTRACERS_useGMRedi = /* apply GM-Redi */
(PID.TID 0000.0001)                   T
(PID.TID 0000.0001)     ;
(PID.TID 0000.0001) PTRACERS_useDWNSLP = /* apply DOWN-SLOPE Flow */
(PID.TID 0000.0001)                   F
(PID.TID 0000.0001)     ;
(PID.TID 0000.0001) PTRACERS_useKPP = /* apply KPP scheme */
(PID.TID 0000.0001)                   T
(PID.TID 0000.0001)     ;
(PID.TID 0000.0001) PTRACERS_stayPositive = /* use Smolarkiewicz Hack for this tracer */
(PID.TID 0000.0001)                   T
(PID.TID 0000.0001)     ;
(PID.TID 0000.0001) PTRACERS_ref = /* Reference vertical profile */
(PID.TID 0000.0001)    23 @  0.000000000000000E+00              /* K =  1: 23 */
(PID.TID 0000.0001)     ;
(PID.TID 0000.0001) PTRACERS_EvPrRn =/* tracer conc. in Evap. & Rain */
(PID.TID 0000.0001)                 1.234567000000000E+05
(PID.TID 0000.0001)     ;
(PID.TID 0000.0001)  -----------------------------------
(PID.TID 0000.0001)  tracer number :   32
(PID.TID 0000.0001) PTRACERS_names = /* Tracer short name */
(PID.TID 0000.0001)               'p04'
(PID.TID 0000.0001)     ;
(PID.TID 0000.0001) PTRACERS_long_names = /* Tracer long name */
(PID.TID 0000.0001)               ''
(PID.TID 0000.0001)     ;
(PID.TID 0000.0001) PTRACERS_ioLabel = /* tracer IO Label */
(PID.TID 0000.0001)               '32'
(PID.TID 0000.0001)     ;
(PID.TID 0000.0001) PTRACERS_advScheme = /* Advection Scheme */
(PID.TID 0000.0001)                      33
(PID.TID 0000.0001)     ;
(PID.TID 0000.0001) PTRACERS_SOM_Advection = /* tracer uses SOM advection scheme */
(PID.TID 0000.0001)                   F
(PID.TID 0000.0001)     ;
(PID.TID 0000.0001) PTRACERS_ImplVertAdv = /* implicit vert. advection flag */
(PID.TID 0000.0001)                   F
(PID.TID 0000.0001)     ;
(PID.TID 0000.0001) PTRACERS_MultiDimAdv = /* tracer uses Multi-Dim advection */
(PID.TID 0000.0001)                   T
(PID.TID 0000.0001)     ;
(PID.TID 0000.0001) PTRACERS_AdamsBashGtr = /* apply AB on tracer tendency */
(PID.TID 0000.0001)                   F
(PID.TID 0000.0001)     ;
(PID.TID 0000.0001) PTRACERS_AdamsBash_Tr = /* apply AB on passive tracer */
(PID.TID 0000.0001)                   F
(PID.TID 0000.0001)     ;
(PID.TID 0000.0001) PTRACERS_diffKh = /* Laplacian Diffusivity */
(PID.TID 0000.0001)                 0.000000000000000E+00
(PID.TID 0000.0001)     ;
(PID.TID 0000.0001) PTRACERS_diffK4 = /* Biharmonic Diffusivity */
(PID.TID 0000.0001)                 0.000000000000000E+00
(PID.TID 0000.0001)     ;
(PID.TID 0000.0001) PTRACERS_diffKrNr = /* Vertical Diffusivity */
(PID.TID 0000.0001)    23 @  1.000000000000000E-05              /* K =  1: 23 */
(PID.TID 0000.0001)     ;
(PID.TID 0000.0001) PTRACERS_useGMRedi = /* apply GM-Redi */
(PID.TID 0000.0001)                   T
(PID.TID 0000.0001)     ;
(PID.TID 0000.0001) PTRACERS_useDWNSLP = /* apply DOWN-SLOPE Flow */
(PID.TID 0000.0001)                   F
(PID.TID 0000.0001)     ;
(PID.TID 0000.0001) PTRACERS_useKPP = /* apply KPP scheme */
(PID.TID 0000.0001)                   T
(PID.TID 0000.0001)     ;
(PID.TID 0000.0001) PTRACERS_stayPositive = /* use Smolarkiewicz Hack for this tracer */
(PID.TID 0000.0001)                   T
(PID.TID 0000.0001)     ;
(PID.TID 0000.0001) PTRACERS_ref = /* Reference vertical profile */
(PID.TID 0000.0001)    23 @  0.000000000000000E+00              /* K =  1: 23 */
(PID.TID 0000.0001)     ;
(PID.TID 0000.0001) PTRACERS_EvPrRn =/* tracer conc. in Evap. & Rain */
(PID.TID 0000.0001)                 1.234567000000000E+05
(PID.TID 0000.0001)     ;
(PID.TID 0000.0001)  -----------------------------------
(PID.TID 0000.0001)  tracer number :   33
(PID.TID 0000.0001) PTRACERS_names = /* Tracer short name */
(PID.TID 0000.0001)               'fe01'
(PID.TID 0000.0001)     ;
(PID.TID 0000.0001) PTRACERS_long_names = /* Tracer long name */
(PID.TID 0000.0001)               ''
(PID.TID 0000.0001)     ;
(PID.TID 0000.0001) PTRACERS_ioLabel = /* tracer IO Label */
(PID.TID 0000.0001)               '33'
(PID.TID 0000.0001)     ;
(PID.TID 0000.0001) PTRACERS_advScheme = /* Advection Scheme */
(PID.TID 0000.0001)                      33
(PID.TID 0000.0001)     ;
(PID.TID 0000.0001) PTRACERS_SOM_Advection = /* tracer uses SOM advection scheme */
(PID.TID 0000.0001)                   F
(PID.TID 0000.0001)     ;
(PID.TID 0000.0001) PTRACERS_ImplVertAdv = /* implicit vert. advection flag */
(PID.TID 0000.0001)                   F
(PID.TID 0000.0001)     ;
(PID.TID 0000.0001) PTRACERS_MultiDimAdv = /* tracer uses Multi-Dim advection */
(PID.TID 0000.0001)                   T
(PID.TID 0000.0001)     ;
(PID.TID 0000.0001) PTRACERS_AdamsBashGtr = /* apply AB on tracer tendency */
(PID.TID 0000.0001)                   F
(PID.TID 0000.0001)     ;
(PID.TID 0000.0001) PTRACERS_AdamsBash_Tr = /* apply AB on passive tracer */
(PID.TID 0000.0001)                   F
(PID.TID 0000.0001)     ;
(PID.TID 0000.0001) PTRACERS_diffKh = /* Laplacian Diffusivity */
(PID.TID 0000.0001)                 0.000000000000000E+00
(PID.TID 0000.0001)     ;
(PID.TID 0000.0001) PTRACERS_diffK4 = /* Biharmonic Diffusivity */
(PID.TID 0000.0001)                 0.000000000000000E+00
(PID.TID 0000.0001)     ;
(PID.TID 0000.0001) PTRACERS_diffKrNr = /* Vertical Diffusivity */
(PID.TID 0000.0001)    23 @  1.000000000000000E-05              /* K =  1: 23 */
(PID.TID 0000.0001)     ;
(PID.TID 0000.0001) PTRACERS_useGMRedi = /* apply GM-Redi */
(PID.TID 0000.0001)                   T
(PID.TID 0000.0001)     ;
(PID.TID 0000.0001) PTRACERS_useDWNSLP = /* apply DOWN-SLOPE Flow */
(PID.TID 0000.0001)                   F
(PID.TID 0000.0001)     ;
(PID.TID 0000.0001) PTRACERS_useKPP = /* apply KPP scheme */
(PID.TID 0000.0001)                   T
(PID.TID 0000.0001)     ;
(PID.TID 0000.0001) PTRACERS_stayPositive = /* use Smolarkiewicz Hack for this tracer */
(PID.TID 0000.0001)                   T
(PID.TID 0000.0001)     ;
(PID.TID 0000.0001) PTRACERS_ref = /* Reference vertical profile */
(PID.TID 0000.0001)    23 @  0.000000000000000E+00              /* K =  1: 23 */
(PID.TID 0000.0001)     ;
(PID.TID 0000.0001) PTRACERS_EvPrRn =/* tracer conc. in Evap. & Rain */
(PID.TID 0000.0001)                 1.234567000000000E+05
(PID.TID 0000.0001)     ;
(PID.TID 0000.0001)  -----------------------------------
(PID.TID 0000.0001)  tracer number :   34
(PID.TID 0000.0001) PTRACERS_names = /* Tracer short name */
(PID.TID 0000.0001)               'fe02'
(PID.TID 0000.0001)     ;
(PID.TID 0000.0001) PTRACERS_long_names = /* Tracer long name */
(PID.TID 0000.0001)               ''
(PID.TID 0000.0001)     ;
(PID.TID 0000.0001) PTRACERS_ioLabel = /* tracer IO Label */
(PID.TID 0000.0001)               '34'
(PID.TID 0000.0001)     ;
(PID.TID 0000.0001) PTRACERS_advScheme = /* Advection Scheme */
(PID.TID 0000.0001)                      33
(PID.TID 0000.0001)     ;
(PID.TID 0000.0001) PTRACERS_SOM_Advection = /* tracer uses SOM advection scheme */
(PID.TID 0000.0001)                   F
(PID.TID 0000.0001)     ;
(PID.TID 0000.0001) PTRACERS_ImplVertAdv = /* implicit vert. advection flag */
(PID.TID 0000.0001)                   F
(PID.TID 0000.0001)     ;
(PID.TID 0000.0001) PTRACERS_MultiDimAdv = /* tracer uses Multi-Dim advection */
(PID.TID 0000.0001)                   T
(PID.TID 0000.0001)     ;
(PID.TID 0000.0001) PTRACERS_AdamsBashGtr = /* apply AB on tracer tendency */
(PID.TID 0000.0001)                   F
(PID.TID 0000.0001)     ;
(PID.TID 0000.0001) PTRACERS_AdamsBash_Tr = /* apply AB on passive tracer */
(PID.TID 0000.0001)                   F
(PID.TID 0000.0001)     ;
(PID.TID 0000.0001) PTRACERS_diffKh = /* Laplacian Diffusivity */
(PID.TID 0000.0001)                 0.000000000000000E+00
(PID.TID 0000.0001)     ;
(PID.TID 0000.0001) PTRACERS_diffK4 = /* Biharmonic Diffusivity */
(PID.TID 0000.0001)                 0.000000000000000E+00
(PID.TID 0000.0001)     ;
(PID.TID 0000.0001) PTRACERS_diffKrNr = /* Vertical Diffusivity */
(PID.TID 0000.0001)    23 @  1.000000000000000E-05              /* K =  1: 23 */
(PID.TID 0000.0001)     ;
(PID.TID 0000.0001) PTRACERS_useGMRedi = /* apply GM-Redi */
(PID.TID 0000.0001)                   T
(PID.TID 0000.0001)     ;
(PID.TID 0000.0001) PTRACERS_useDWNSLP = /* apply DOWN-SLOPE Flow */
(PID.TID 0000.0001)                   F
(PID.TID 0000.0001)     ;
(PID.TID 0000.0001) PTRACERS_useKPP = /* apply KPP scheme */
(PID.TID 0000.0001)                   T
(PID.TID 0000.0001)     ;
(PID.TID 0000.0001) PTRACERS_stayPositive = /* use Smolarkiewicz Hack for this tracer */
(PID.TID 0000.0001)                   T
(PID.TID 0000.0001)     ;
(PID.TID 0000.0001) PTRACERS_ref = /* Reference vertical profile */
(PID.TID 0000.0001)    23 @  0.000000000000000E+00              /* K =  1: 23 */
(PID.TID 0000.0001)     ;
(PID.TID 0000.0001) PTRACERS_EvPrRn =/* tracer conc. in Evap. & Rain */
(PID.TID 0000.0001)                 1.234567000000000E+05
(PID.TID 0000.0001)     ;
(PID.TID 0000.0001)  -----------------------------------
(PID.TID 0000.0001)  tracer number :   35
(PID.TID 0000.0001) PTRACERS_names = /* Tracer short name */
(PID.TID 0000.0001)               'fe03'
(PID.TID 0000.0001)     ;
(PID.TID 0000.0001) PTRACERS_long_names = /* Tracer long name */
(PID.TID 0000.0001)               ''
(PID.TID 0000.0001)     ;
(PID.TID 0000.0001) PTRACERS_ioLabel = /* tracer IO Label */
(PID.TID 0000.0001)               '35'
(PID.TID 0000.0001)     ;
(PID.TID 0000.0001) PTRACERS_advScheme = /* Advection Scheme */
(PID.TID 0000.0001)                      33
(PID.TID 0000.0001)     ;
(PID.TID 0000.0001) PTRACERS_SOM_Advection = /* tracer uses SOM advection scheme */
(PID.TID 0000.0001)                   F
(PID.TID 0000.0001)     ;
(PID.TID 0000.0001) PTRACERS_ImplVertAdv = /* implicit vert. advection flag */
(PID.TID 0000.0001)                   F
(PID.TID 0000.0001)     ;
(PID.TID 0000.0001) PTRACERS_MultiDimAdv = /* tracer uses Multi-Dim advection */
(PID.TID 0000.0001)                   T
(PID.TID 0000.0001)     ;
(PID.TID 0000.0001) PTRACERS_AdamsBashGtr = /* apply AB on tracer tendency */
(PID.TID 0000.0001)                   F
(PID.TID 0000.0001)     ;
(PID.TID 0000.0001) PTRACERS_AdamsBash_Tr = /* apply AB on passive tracer */
(PID.TID 0000.0001)                   F
(PID.TID 0000.0001)     ;
(PID.TID 0000.0001) PTRACERS_diffKh = /* Laplacian Diffusivity */
(PID.TID 0000.0001)                 0.000000000000000E+00
(PID.TID 0000.0001)     ;
(PID.TID 0000.0001) PTRACERS_diffK4 = /* Biharmonic Diffusivity */
(PID.TID 0000.0001)                 0.000000000000000E+00
(PID.TID 0000.0001)     ;
(PID.TID 0000.0001) PTRACERS_diffKrNr = /* Vertical Diffusivity */
(PID.TID 0000.0001)    23 @  1.000000000000000E-05              /* K =  1: 23 */
(PID.TID 0000.0001)     ;
(PID.TID 0000.0001) PTRACERS_useGMRedi = /* apply GM-Redi */
(PID.TID 0000.0001)                   T
(PID.TID 0000.0001)     ;
(PID.TID 0000.0001) PTRACERS_useDWNSLP = /* apply DOWN-SLOPE Flow */
(PID.TID 0000.0001)                   F
(PID.TID 0000.0001)     ;
(PID.TID 0000.0001) PTRACERS_useKPP = /* apply KPP scheme */
(PID.TID 0000.0001)                   T
(PID.TID 0000.0001)     ;
(PID.TID 0000.0001) PTRACERS_stayPositive = /* use Smolarkiewicz Hack for this tracer */
(PID.TID 0000.0001)                   T
(PID.TID 0000.0001)     ;
(PID.TID 0000.0001) PTRACERS_ref = /* Reference vertical profile */
(PID.TID 0000.0001)    23 @  0.000000000000000E+00              /* K =  1: 23 */
(PID.TID 0000.0001)     ;
(PID.TID 0000.0001) PTRACERS_EvPrRn =/* tracer conc. in Evap. & Rain */
(PID.TID 0000.0001)                 1.234567000000000E+05
(PID.TID 0000.0001)     ;
(PID.TID 0000.0001)  -----------------------------------
(PID.TID 0000.0001)  tracer number :   36
(PID.TID 0000.0001) PTRACERS_names = /* Tracer short name */
(PID.TID 0000.0001)               'fe04'
(PID.TID 0000.0001)     ;
(PID.TID 0000.0001) PTRACERS_long_names = /* Tracer long name */
(PID.TID 0000.0001)               ''
(PID.TID 0000.0001)     ;
(PID.TID 0000.0001) PTRACERS_ioLabel = /* tracer IO Label */
(PID.TID 0000.0001)               '36'
(PID.TID 0000.0001)     ;
(PID.TID 0000.0001) PTRACERS_advScheme = /* Advection Scheme */
(PID.TID 0000.0001)                      33
(PID.TID 0000.0001)     ;
(PID.TID 0000.0001) PTRACERS_SOM_Advection = /* tracer uses SOM advection scheme */
(PID.TID 0000.0001)                   F
(PID.TID 0000.0001)     ;
(PID.TID 0000.0001) PTRACERS_ImplVertAdv = /* implicit vert. advection flag */
(PID.TID 0000.0001)                   F
(PID.TID 0000.0001)     ;
(PID.TID 0000.0001) PTRACERS_MultiDimAdv = /* tracer uses Multi-Dim advection */
(PID.TID 0000.0001)                   T
(PID.TID 0000.0001)     ;
(PID.TID 0000.0001) PTRACERS_AdamsBashGtr = /* apply AB on tracer tendency */
(PID.TID 0000.0001)                   F
(PID.TID 0000.0001)     ;
(PID.TID 0000.0001) PTRACERS_AdamsBash_Tr = /* apply AB on passive tracer */
(PID.TID 0000.0001)                   F
(PID.TID 0000.0001)     ;
(PID.TID 0000.0001) PTRACERS_diffKh = /* Laplacian Diffusivity */
(PID.TID 0000.0001)                 0.000000000000000E+00
(PID.TID 0000.0001)     ;
(PID.TID 0000.0001) PTRACERS_diffK4 = /* Biharmonic Diffusivity */
(PID.TID 0000.0001)                 0.000000000000000E+00
(PID.TID 0000.0001)     ;
(PID.TID 0000.0001) PTRACERS_diffKrNr = /* Vertical Diffusivity */
(PID.TID 0000.0001)    23 @  1.000000000000000E-05              /* K =  1: 23 */
(PID.TID 0000.0001)     ;
(PID.TID 0000.0001) PTRACERS_useGMRedi = /* apply GM-Redi */
(PID.TID 0000.0001)                   T
(PID.TID 0000.0001)     ;
(PID.TID 0000.0001) PTRACERS_useDWNSLP = /* apply DOWN-SLOPE Flow */
(PID.TID 0000.0001)                   F
(PID.TID 0000.0001)     ;
(PID.TID 0000.0001) PTRACERS_useKPP = /* apply KPP scheme */
(PID.TID 0000.0001)                   T
(PID.TID 0000.0001)     ;
(PID.TID 0000.0001) PTRACERS_stayPositive = /* use Smolarkiewicz Hack for this tracer */
(PID.TID 0000.0001)                   T
(PID.TID 0000.0001)     ;
(PID.TID 0000.0001) PTRACERS_ref = /* Reference vertical profile */
(PID.TID 0000.0001)    23 @  0.000000000000000E+00              /* K =  1: 23 */
(PID.TID 0000.0001)     ;
(PID.TID 0000.0001) PTRACERS_EvPrRn =/* tracer conc. in Evap. & Rain */
(PID.TID 0000.0001)                 1.234567000000000E+05
(PID.TID 0000.0001)     ;
(PID.TID 0000.0001)  -----------------------------------
(PID.TID 0000.0001) GCHEM_CHECK  --> Starts to check GCHEM set-up
(PID.TID 0000.0001) DARWIN_CHECK: #define ALLOW_DARWIN
(PID.TID 0000.0001) 
(PID.TID 0000.0001)  Main CPP flags:
(PID.TID 0000.0001) 
(PID.TID 0000.0001) // DARWIN_ALLOW_NQUOTA:                  defined
(PID.TID 0000.0001) // DARWIN_ALLOW_PQUOTA:                  defined
(PID.TID 0000.0001) // DARWIN_ALLOW_FEQUOTA:                 defined
(PID.TID 0000.0001) // DARWIN_ALLOW_SIQUOTA:             NOT defined
(PID.TID 0000.0001) // DARWIN_ALLOW_CHLQUOTA:            NOT defined
(PID.TID 0000.0001) // DARWIN_ALLOW_CSTORE:              NOT defined
(PID.TID 0000.0001) // DARWIN_ALLOW_CSTORE_DIAGS:        NOT defined
(PID.TID 0000.0001) // DARWIN_ALLOW_CDOM:                    defined
(PID.TID 0000.0001) // DARWIN_ALLOW_CARBON:                  defined
(PID.TID 0000.0001) // DARWIN_TOTALPHSCALE:              NOT defined
(PID.TID 0000.0001) // DARWIN_ALLOW_DENIT:                   defined
(PID.TID 0000.0001) // DARWIN_ALLOW_EXUDE:               NOT defined
(PID.TID 0000.0001) // ALLOW_OLD_VIRTUALFLUX:                defined
(PID.TID 0000.0001) // DARWIN_NITRATE_FELIMIT:           NOT defined
(PID.TID 0000.0001) // DARWIN_BOTTOM_SINK:               NOT defined
(PID.TID 0000.0001) // DARWIN_CDOM_UNITS_CARBON:         NOT defined
(PID.TID 0000.0001) // DARWIN_NUTRIENT_RUNOFF:           NOT defined
(PID.TID 0000.0001) // DARWIN_AVPAR:                     NOT defined
(PID.TID 0000.0001) // DARWIN_ALLOW_GEIDER:              NOT defined
(PID.TID 0000.0001) // DARWIN_GEIDER_RHO_SYNTH:              defined
(PID.TID 0000.0001) // DARWIN_CHL_INIT_LEGACY:           NOT defined
(PID.TID 0000.0001) // DARWIN_SCATTER_CHL:               NOT defined
(PID.TID 0000.0001) // DARWIN_DIAG_IOP:                      defined
(PID.TID 0000.0001) // DARWIN_GRAZING_SWITCH:            NOT defined
(PID.TID 0000.0001) // DARWIN_ALLOMETRIC_PALAT:          NOT defined
(PID.TID 0000.0001) // DARWIN_NOZOOTEMP:                 NOT defined
(PID.TID 0000.0001) // DARWIN_NOTEMP:                    NOT defined
(PID.TID 0000.0001) // DARWIN_TEMP_VERSION:                        2
(PID.TID 0000.0001) // DARWIN_TEMP_RANGE:                NOT defined
(PID.TID 0000.0001) // DARWIN_MINFE:                         defined
(PID.TID 0000.0001) // DARWIN_PART_SCAV:                     defined
(PID.TID 0000.0001) // DARWIN_IRON_SED_SOURCE_VARIABLE:      defined
(PID.TID 0000.0001) // DARWIN_IRON_SED_SOURCE_POP:           defined
(PID.TID 0000.0001) // DARWIN_DIAG_PERTYPE:                  defined
(PID.TID 0000.0001) // DARWIN_DEBUG:                     NOT defined
(PID.TID 0000.0001) // DARWIN_ALLOW_CONS:                    defined
(PID.TID 0000.0001) // DARWIN_UNUSED:                              0
(PID.TID 0000.0001) // DARWIN_DIAG_TENDENCIES:           NOT defined
(PID.TID 0000.0001) // DARWIN_PART_SCAV_POP:             NOT defined
(PID.TID 0000.0001) 
(PID.TID 0000.0001) darwin_loadFieldsEarly = /* whether forcing fields are read during initializaton  */
(PID.TID 0000.0001)                   F
(PID.TID 0000.0001)     ;
(PID.TID 0000.0001) darwin_useSEAICE = /* whether to use ice area from seaice pkg */
(PID.TID 0000.0001)                   F
(PID.TID 0000.0001)     ;
(PID.TID 0000.0001) darwin_useEXFwind = /* whether to use wind speed from exf package */
(PID.TID 0000.0001)                   F
(PID.TID 0000.0001)     ;
(PID.TID 0000.0001)    iron forcing period is                              -12.
(PID.TID 0000.0001)    iron forcing is read from file:
(PID.TID 0000.0001)    >> input_ecco/mahowald2009_solubile_current_smooth_oce_mth-2d.bin <<
(PID.TID 0000.0001) 
(PID.TID 0000.0001) iron_exfremo_intercept = /* intercept for iron forcing mean removal */
(PID.TID 0000.0001)                 0.000000000000000E+00
(PID.TID 0000.0001)     ;
(PID.TID 0000.0001) iron_exfremo_slope = /* slope for iron forcing trend removal */
(PID.TID 0000.0001)                 0.000000000000000E+00
(PID.TID 0000.0001)     ;
(PID.TID 0000.0001) darwin_inscal_iron = /* scaling factor for iron fields */
(PID.TID 0000.0001)                 2.000000000000000E+03
(PID.TID 0000.0001)     ;
(PID.TID 0000.0001) ironmask = /* mask for iron forcing */
(PID.TID 0000.0001)               'c'
(PID.TID 0000.0001)     ;
(PID.TID 0000.0001) 
(PID.TID 0000.0001)    ice forcing starts at                         -31060800.
(PID.TID 0000.0001)    ice forcing period is                             86400.
(PID.TID 0000.0001)    ice forcing repeat-cycle is                    31104000.
(PID.TID 0000.0001)    ice forcing is read from file:
(PID.TID 0000.0001)    >> eccov3/SIarea.bin <<
(PID.TID 0000.0001) 
(PID.TID 0000.0001) ice_exfremo_intercept = /* intercept for ice forcing mean removal */
(PID.TID 0000.0001)                 0.000000000000000E+00
(PID.TID 0000.0001)     ;
(PID.TID 0000.0001) ice_exfremo_slope = /* slope for ice forcing trend removal */
(PID.TID 0000.0001)                 0.000000000000000E+00
(PID.TID 0000.0001)     ;
(PID.TID 0000.0001) darwin_inscal_ice = /* scaling factor for ice fields */
(PID.TID 0000.0001)                 1.000000000000000E+00
(PID.TID 0000.0001)     ;
(PID.TID 0000.0001) icemask = /* mask for ice forcing */
(PID.TID 0000.0001)               'c'
(PID.TID 0000.0001)     ;
(PID.TID 0000.0001) 
(PID.TID 0000.0001)    wind forcing period is                              -12.
(PID.TID 0000.0001)    wind forcing is read from file:
(PID.TID 0000.0001)    >> input_ecco/tren_speed_mth-2d.bin <<
(PID.TID 0000.0001) 
(PID.TID 0000.0001) wind_exfremo_intercept = /* intercept for wind forcing mean removal */
(PID.TID 0000.0001)                 0.000000000000000E+00
(PID.TID 0000.0001)     ;
(PID.TID 0000.0001) wind_exfremo_slope = /* slope for wind forcing trend removal */
(PID.TID 0000.0001)                 0.000000000000000E+00
(PID.TID 0000.0001)     ;
(PID.TID 0000.0001) darwin_inscal_wind = /* scaling factor for wind fields */
(PID.TID 0000.0001)                 1.000000000000000E+00
(PID.TID 0000.0001)     ;
(PID.TID 0000.0001) windmask = /* mask for wind forcing */
(PID.TID 0000.0001)               'c'
(PID.TID 0000.0001)     ;
(PID.TID 0000.0001) 
(PID.TID 0000.0001) pCO2const = /* constant pCO2 forcing */
(PID.TID 0000.0001)                 2.780000000000000E-04
(PID.TID 0000.0001)     ;
(PID.TID 0000.0001) pCO2mask = /* mask for pCO2 forcing */
(PID.TID 0000.0001)               'c'
(PID.TID 0000.0001)     ;
(PID.TID 0000.0001) 
(PID.TID 0000.0001) DOCrunoffconst = /* constant DOCrunoff forcing */
(PID.TID 0000.0001)                 0.000000000000000E+00
(PID.TID 0000.0001)     ;
(PID.TID 0000.0001) 
(PID.TID 0000.0001) DONrunoffconst = /* constant DONrunoff forcing */
(PID.TID 0000.0001)                 0.000000000000000E+00
(PID.TID 0000.0001)     ;
(PID.TID 0000.0001) 
(PID.TID 0000.0001) DOPrunoffconst = /* constant DOPrunoff forcing */
(PID.TID 0000.0001)                 0.000000000000000E+00
(PID.TID 0000.0001)     ;
(PID.TID 0000.0001) 
(PID.TID 0000.0001) DINrunoffconst = /* constant DINrunoff forcing */
(PID.TID 0000.0001)                 0.000000000000000E+00
(PID.TID 0000.0001)     ;
(PID.TID 0000.0001) 
(PID.TID 0000.0001) IPrunoffconst = /* constant IPrunoff forcing */
(PID.TID 0000.0001)                 0.000000000000000E+00
(PID.TID 0000.0001)     ;
(PID.TID 0000.0001) 
(PID.TID 0000.0001) DSirunoffconst = /* constant DSirunoff forcing */
(PID.TID 0000.0001)                 0.000000000000000E+00
(PID.TID 0000.0001)     ;
(PID.TID 0000.0001) 
(PID.TID 0000.0001) POCrunoffconst = /* constant POCrunoff forcing */
(PID.TID 0000.0001)                 0.000000000000000E+00
(PID.TID 0000.0001)     ;
(PID.TID 0000.0001) 
(PID.TID 0000.0001) POPrunoffconst = /* constant POPrunoff forcing */
(PID.TID 0000.0001)                 0.000000000000000E+00
(PID.TID 0000.0001)     ;
(PID.TID 0000.0001) 
(PID.TID 0000.0001) PONrunoffconst = /* constant PONrunoff forcing */
(PID.TID 0000.0001)                 0.000000000000000E+00
(PID.TID 0000.0001)     ;
(PID.TID 0000.0001) 
(PID.TID 0000.0001) DICrunoffconst = /* constant DICrunoff forcing */
(PID.TID 0000.0001)                 0.000000000000000E+00
(PID.TID 0000.0001)     ;
(PID.TID 0000.0001) 
(PID.TID 0000.0001) R_ALK_DIC_runoff = /* [eq/mol C] ALK:DIC ratio in runoff */
(PID.TID 0000.0001)                 1.021800000000000E+00
(PID.TID 0000.0001)     ;
(PID.TID 0000.0001) R_NO3_DIN_runoff = /* [mol N/mol N] NO3 fraction of DIN in runoff */
(PID.TID 0000.0001)                 6.531000000000000E-01
(PID.TID 0000.0001)     ;
(PID.TID 0000.0001) R_NO2_DIN_runoff = /* [mol N/mol N] NO2 fraction of DIN in runoff */
(PID.TID 0000.0001)                 1.580000000000000E-02
(PID.TID 0000.0001)     ;
(PID.TID 0000.0001) R_NH4_DIN_runoff = /* [mol N/mol N] NH4 fraction of DIN in runoff */
(PID.TID 0000.0001)                 3.311000000000000E-01
(PID.TID 0000.0001)     ;
(PID.TID 0000.0001) R_DIP_IP_runoff = /* [mol P/mol P] ratio of dissolved to total inorganic P in  */
(PID.TID 0000.0001)                 3.330000000000000E-01
(PID.TID 0000.0001)     ;
(PID.TID 0000.0001) R_DFe_DIP_runoff = /* [mol Fe/mol P] Fe:P ratio for inorganic P in runoff */
(PID.TID 0000.0001)                 3.000000000000000E-04
(PID.TID 0000.0001)     ;
(PID.TID 0000.0001) R_DOFe_DOP_runoff = /* [mol Fe/mol P] Fe:P ratio for dissolved organic matter in */
(PID.TID 0000.0001)                 3.000000000000000E-04
(PID.TID 0000.0001)     ;
(PID.TID 0000.0001) R_POFe_POP_runoff = /* [mol Fe/mol P] Fe:P ratio for particulate organic matter  */
(PID.TID 0000.0001)                 3.000000000000000E-04
(PID.TID 0000.0001)     ;
(PID.TID 0000.0001) darwin_chlInitBalanced = /* Initialize Chlorophyll to a balanced value following Geider */
(PID.TID 0000.0001)                   F
(PID.TID 0000.0001)     ;
(PID.TID 0000.0001) darwin_chlIter0 = /* Iteration number when to initialize Chlorophyll */
(PID.TID 0000.0001)                       0
(PID.TID 0000.0001)     ;
(PID.TID 0000.0001) Pa2Atm = /* Convert pressure in Pascal to atm */
(PID.TID 0000.0001)                 1.013250000000000E+05
(PID.TID 0000.0001)     ;
(PID.TID 0000.0001) ptr2mol = /* convert ptracers (in mmol/m3) to mol/m3 */
(PID.TID 0000.0001)                 1.000000000000000E-03
(PID.TID 0000.0001)     ;
(PID.TID 0000.0001) sca1 = /* Schmidt no. coefficient for CO2 */
(PID.TID 0000.0001)                 2.073100000000000E+03
(PID.TID 0000.0001)     ;
(PID.TID 0000.0001) sca2 = /* Schmidt no. coefficient for CO2 */
(PID.TID 0000.0001)                -1.256200000000000E+02
(PID.TID 0000.0001)     ;
(PID.TID 0000.0001) sca3 = /* Schmidt no. coefficient for CO2 */
(PID.TID 0000.0001)                 3.627600000000000E+00
(PID.TID 0000.0001)     ;
(PID.TID 0000.0001) sca4 = /* Schmidt no. coefficient for CO2 */
(PID.TID 0000.0001)                -4.321900000000000E-02
(PID.TID 0000.0001)     ;
(PID.TID 0000.0001) sox1 = /* Schmidt no. coefficient for O2 [Keeling et al, GBC, 12, 141,' (1998)] */
(PID.TID 0000.0001)                 1.638000000000000E+03
(PID.TID 0000.0001)     ;
(PID.TID 0000.0001) sox2 = /* Schmidt no. coefficient for O2 [Keeling et al, GBC, 12, 141,' (1998)] */
(PID.TID 0000.0001)                -8.183000000000000E+01
(PID.TID 0000.0001)     ;
(PID.TID 0000.0001) sox3 = /* Schmidt no. coefficient for O2 [Keeling et al, GBC, 12, 141,' (1998)] */
(PID.TID 0000.0001)                 1.483000000000000E+00
(PID.TID 0000.0001)     ;
(PID.TID 0000.0001) sox4 = /* Schmidt no. coefficient for O2 [Keeling et al, GBC, 12, 141,' (1998)] */
(PID.TID 0000.0001)                -8.004000000000001E-03
(PID.TID 0000.0001)     ;
(PID.TID 0000.0001) oA0 = /* Coefficient for determining saturation O2 */
(PID.TID 0000.0001)                 2.009070000000000E+00
(PID.TID 0000.0001)     ;
(PID.TID 0000.0001) oA1 = /* Coefficient for determining saturation O2 */
(PID.TID 0000.0001)                 3.220140000000000E+00
(PID.TID 0000.0001)     ;
(PID.TID 0000.0001) oA2 = /* Coefficient for determining saturation O2 */
(PID.TID 0000.0001)                 4.050100000000000E+00
(PID.TID 0000.0001)     ;
(PID.TID 0000.0001) oA3 = /* Coefficient for determining saturation O2 */
(PID.TID 0000.0001)                 4.944570000000000E+00
(PID.TID 0000.0001)     ;
(PID.TID 0000.0001) oA4 = /* Coefficient for determining saturation O2 */
(PID.TID 0000.0001)                -2.568470000000000E-01
(PID.TID 0000.0001)     ;
(PID.TID 0000.0001) oA5 = /* Coefficient for determining saturation O2 */
(PID.TID 0000.0001)                 3.887670000000000E+00
(PID.TID 0000.0001)     ;
(PID.TID 0000.0001) oB0 = /* Coefficient for determining saturation O2 */
(PID.TID 0000.0001)                -6.245230000000000E-03
(PID.TID 0000.0001)     ;
(PID.TID 0000.0001) oB1 = /* Coefficient for determining saturation O2 */
(PID.TID 0000.0001)                -7.376140000000000E-03
(PID.TID 0000.0001)     ;
(PID.TID 0000.0001) oB2 = /* Coefficient for determining saturation O2 */
(PID.TID 0000.0001)                -1.034100000000000E-02
(PID.TID 0000.0001)     ;
(PID.TID 0000.0001) oB3 = /* Coefficient for determining saturation O2 */
(PID.TID 0000.0001)                -8.170830000000000E-03
(PID.TID 0000.0001)     ;
(PID.TID 0000.0001) oC0 = /* Coefficient for determining saturation O2 */
(PID.TID 0000.0001)                -4.886820000000000E-07
(PID.TID 0000.0001)     ;
(PID.TID 0000.0001) darwin_pickupSuff = /* pickup suffix for darwin; set to ' ' to disable reading at' PTRACERS_Iter0 */
(PID.TID 0000.0001)               'darwin'
(PID.TID 0000.0001)     ;
(PID.TID 0000.0001) darwin_strict_check = /* stop instead of issuing warnings */
(PID.TID 0000.0001)                   F
(PID.TID 0000.0001)     ;
(PID.TID 0000.0001) darwin_linFSConserve = /* correct non-conservation due to linear free surface (globally) */
(PID.TID 0000.0001)                   F
(PID.TID 0000.0001)     ;
(PID.TID 0000.0001) darwin_read_phos = /* initial conditions for plankton biomass are in mmol P/m3 */
(PID.TID 0000.0001)                   F
(PID.TID 0000.0001)     ;
(PID.TID 0000.0001) darwin_seed = /* seed for random number generator (for DARWIN_RANDOM_TRAITS) */
(PID.TID 0000.0001)                      56
(PID.TID 0000.0001)     ;
(PID.TID 0000.0001) iDEBUG = /* index in x dimension for debug prints */
(PID.TID 0000.0001)                     271
(PID.TID 0000.0001)     ;
(PID.TID 0000.0001) jDEBUG = /* index in y dimension for debug prints */
(PID.TID 0000.0001)                      63
(PID.TID 0000.0001)     ;
(PID.TID 0000.0001) kDEBUG = /* index in z dimension for debug prints */
(PID.TID 0000.0001)                       1
(PID.TID 0000.0001)     ;
(PID.TID 0000.0001) katten_w = /* atten coefficient water (1/m) */
(PID.TID 0000.0001)                 4.000000000000000E-02
(PID.TID 0000.0001)     ;
(PID.TID 0000.0001) katten_chl = /* atten coefficient chl (m2/mg Chl) */
(PID.TID 0000.0001)                 4.000000000000000E-02
(PID.TID 0000.0001)     ;
(PID.TID 0000.0001) parfrac = /* fraction Qsw that is PAR */
(PID.TID 0000.0001)                 4.000000000000000E-01
(PID.TID 0000.0001)     ;
(PID.TID 0000.0001) parconv = /* conversion from W/m2 to uEin/m2/s (uEin/s/W) */
(PID.TID 0000.0001)                 4.599816007359705E+00
(PID.TID 0000.0001)     ;
(PID.TID 0000.0001) tempnorm = /* set temperature function (was 1.0) */
(PID.TID 0000.0001)                 3.000000000000000E-01
(PID.TID 0000.0001)     ;
(PID.TID 0000.0001) TempAeArr = /* slope for pseudo-Arrhenius (TEMP_VERSION 2) (K) */
(PID.TID 0000.0001)                -4.000000000000000E+03
(PID.TID 0000.0001)     ;
(PID.TID 0000.0001) TemprefArr = /* reference temp for pseudo-Arrhenius (TEMP_VERSION 2) (K) */
(PID.TID 0000.0001)                 2.931500000000000E+02
(PID.TID 0000.0001)     ;
(PID.TID 0000.0001) TempCoeffArr = /* pre-factor for pseudo-Arrhenius (TEMP_VERSION 2) */
(PID.TID 0000.0001)                 8.000000000000000E-01
(PID.TID 0000.0001)     ;
(PID.TID 0000.0001) reminTempAe = /* temperature coefficient for remineralization (TEMP_VERSION 4) (1/K) */
(PID.TID 0000.0001)                 4.380000000000000E-02
(PID.TID 0000.0001)     ;
(PID.TID 0000.0001) mortTempAe = /* temperature coefficient for linear mortality (TEMP_VERSION 4) (1/K) */
(PID.TID 0000.0001)                 4.380000000000000E-02
(PID.TID 0000.0001)     ;
(PID.TID 0000.0001) mort2TempAe = /* temperature coefficient for quadr. mortality (TEMP_VERSION 4) (1/K) */
(PID.TID 0000.0001)                 4.380000000000000E-02
(PID.TID 0000.0001)     ;
(PID.TID 0000.0001) uptakeTempAe = /* temperature coefficient for uptake (TEMP_VERSION 4) (1/K) */
(PID.TID 0000.0001)                 0.000000000000000E+00
(PID.TID 0000.0001)     ;
(PID.TID 0000.0001) alpfe = /* solubility of Fe dust */
(PID.TID 0000.0001)                 1.000000000000000E+00
(PID.TID 0000.0001)     ;
(PID.TID 0000.0001) ligand_tot = /* total ligand concentration (mol/m3) */
(PID.TID 0000.0001)                 1.000000000000000E-03
(PID.TID 0000.0001)     ;
(PID.TID 0000.0001) ligand_stab = /* ligand stability rate ratio (m3/mol) */
(PID.TID 0000.0001)                 2.000000000000000E+05
(PID.TID 0000.0001)     ;
(PID.TID 0000.0001) freefemax = /* max concentration of free iron (mol/m3) */
(PID.TID 0000.0001)                 1.000000000000000E-04
(PID.TID 0000.0001)     ;
(PID.TID 0000.0001) scav_tau = /* factor to go from Th scavenging rate to iron */
(PID.TID 0000.0001)                 1.500000000000000E-02
(PID.TID 0000.0001)     ;
(PID.TID 0000.0001) scav_inter = /* intercept of scavenging power law (L^e mg^-e s^-1) */
(PID.TID 0000.0001)                 9.143518518518518E-07
(PID.TID 0000.0001)     ;
(PID.TID 0000.0001) scav_exp = /* exponent e of scavenging power law */
(PID.TID 0000.0001)                 5.800000000000000E-01
(PID.TID 0000.0001)     ;
(PID.TID 0000.0001) scav_POC_wgt = /* weight of POC in POM for scavenging (g / mmol C) */
(PID.TID 0000.0001)                 1.000000000000000E+00
(PID.TID 0000.0001)     ;
(PID.TID 0000.0001) scav_POSi_wgt = /* weight of POSi in POM for scavenging (g / mmol Si) */
(PID.TID 0000.0001)                 0.000000000000000E+00
(PID.TID 0000.0001)     ;
(PID.TID 0000.0001) scav_PIC_wgt = /* weight of PIC in POM for scavenging (g / mmol C) */
(PID.TID 0000.0001)                 0.000000000000000E+00
(PID.TID 0000.0001)     ;
(PID.TID 0000.0001) depthfesed = /* depth above which to add sediment source (was -1000) (m) */
(PID.TID 0000.0001)                 7.000000000000000E+03
(PID.TID 0000.0001)     ;
(PID.TID 0000.0001) fesedflux = /* fixed iron flux from sediment (mmol Fe /m2/s) */
(PID.TID 0000.0001)                 1.157407407407407E-08
(PID.TID 0000.0001)     ;
(PID.TID 0000.0001) fesedflux_pcm = /* iron input per POC sinking into bottom for DARWIN_IRON_SED_SOURCE_VARIABLE (mmol Fe / mmol C) */
(PID.TID 0000.0001)                 6.800000000000000E-04
(PID.TID 0000.0001)     ;
(PID.TID 0000.0001) fesedflux_min = /* min iron input rate subtracted from fesedflux_pcm*wc_sink*POC (mmol Fe /s) */
(PID.TID 0000.0001)                 5.787037037037037E-09
(PID.TID 0000.0001)     ;
(PID.TID 0000.0001) R_CP_fesed = /* POC:POP conversion for DARWIN_IRON_SED_SOURCE_POP (mmol C / mmol P) */
(PID.TID 0000.0001)                 1.060000000000000E+02
(PID.TID 0000.0001)     ;
(PID.TID 0000.0001) depthFeVent = /* depth below which iron from hydrothermal vents is added (m) '*/
(PID.TID 0000.0001)                 7.500000000000000E+02
(PID.TID 0000.0001)     ;
(PID.TID 0000.0001) solFeVent =  /* solubility of iron from hydrothermal vents */
(PID.TID 0000.0001)                 2.000000000000000E-03
(PID.TID 0000.0001)     ;
(PID.TID 0000.0001) R_FeHe3_vent = /* Fe:He3 ratio for hydrothermal vents (mol Fe / mol He3) */
(PID.TID 0000.0001)                 4.500000000000000E+08
(PID.TID 0000.0001)     ;
(PID.TID 0000.0001) Knita = /* ammonia oxidation rate (1/s) */
(PID.TID 0000.0001)                 2.314814814814815E-05
(PID.TID 0000.0001)     ;
(PID.TID 0000.0001) Knitb = /* nitrite oxidation rate (1/s) */
(PID.TID 0000.0001)                 1.157407407407407E-06
(PID.TID 0000.0001)     ;
(PID.TID 0000.0001) PAR_oxi = /* critical light level after which oxidation starts (uEin/m2/s) */
(PID.TID 0000.0001)                 1.000000000000000E+01
(PID.TID 0000.0001)     ;
(PID.TID 0000.0001) Kdoc = /* DOC remineralization rate (1/s) */
(PID.TID 0000.0001)                 3.858024691358024E-07
(PID.TID 0000.0001)     ;
(PID.TID 0000.0001) Kdop = /* DON remineralization rate (1/s) */
(PID.TID 0000.0001)                 3.858024691358024E-07
(PID.TID 0000.0001)     ;
(PID.TID 0000.0001) Kdon = /* DOP remineralization rate (1/s) */
(PID.TID 0000.0001)                 3.858024691358024E-07
(PID.TID 0000.0001)     ;
(PID.TID 0000.0001) KdoFe = /* DOFe remineralization rate (1/s) */
(PID.TID 0000.0001)                 3.858024691358024E-07
(PID.TID 0000.0001)     ;
(PID.TID 0000.0001) KPOC = /* POC remineralization rate (1/s) */
(PID.TID 0000.0001)                 3.858024691358024E-07
(PID.TID 0000.0001)     ;
(PID.TID 0000.0001) KPON = /* PON remineralization rate (1/s) */
(PID.TID 0000.0001)                 3.858024691358024E-07
(PID.TID 0000.0001)     ;
(PID.TID 0000.0001) KPOP = /* POP remineralization rate (1/s) */
(PID.TID 0000.0001)                 3.858024691358024E-07
(PID.TID 0000.0001)     ;
(PID.TID 0000.0001) KPOFe = /* POFe remineralization rate (1/s) */
(PID.TID 0000.0001)                 3.858024691358024E-07
(PID.TID 0000.0001)     ;
(PID.TID 0000.0001) KPOSi = /* POSi remineralization rate (1/s) */
(PID.TID 0000.0001)                 7.716049382716049E-08
(PID.TID 0000.0001)     ;
(PID.TID 0000.0001) wC_sink = /* sinking velocity for POC (m/s) */
(PID.TID 0000.0001)                 1.157407407407407E-04
(PID.TID 0000.0001)     ;
(PID.TID 0000.0001) wN_sink = /* sinking velocity for PON (m/s) */
(PID.TID 0000.0001)                 1.157407407407407E-04
(PID.TID 0000.0001)     ;
(PID.TID 0000.0001) wP_sink = /* sinking velocity for POP (m/s) */
(PID.TID 0000.0001)                 1.157407407407407E-04
(PID.TID 0000.0001)     ;
(PID.TID 0000.0001) wFe_sink = /* sinking velocity for POFe (m/s) */
(PID.TID 0000.0001)                 1.157407407407407E-04
(PID.TID 0000.0001)     ;
(PID.TID 0000.0001) wSi_sink = /* sinking velocity for POSi (m/s) */
(PID.TID 0000.0001)                 1.157407407407407E-04
(PID.TID 0000.0001)     ;
(PID.TID 0000.0001) wPIC_sink = /* sinking velocity for PIC (m/s) */
(PID.TID 0000.0001)                 1.736111111111111E-04
(PID.TID 0000.0001)     ;
(PID.TID 0000.0001) darwin_disscSelect =  /* Switch for PIC dissolution rate formulation */
(PID.TID 0000.0001)                       0
(PID.TID 0000.0001)     ;
(PID.TID 0000.0001) Kdissc = /* dissolution rate for PIC (1/s) */
(PID.TID 0000.0001)                 3.858024691358025E-08
(PID.TID 0000.0001)     ;
(PID.TID 0000.0001) R_OP = /* O:P ratio for respiration and consumption (mmol O2 / mmol P)' */
(PID.TID 0000.0001)                 1.700000000000000E+02
(PID.TID 0000.0001)     ;
(PID.TID 0000.0001) R_OC = /* NOT USED (mmol O2 / mmol C) */
(PID.TID 0000.0001)                 1.416666666666667E+00
(PID.TID 0000.0001)     ;
(PID.TID 0000.0001) m3perkg = /* constant for converting per kg to per m^3 (m3/kg) */
(PID.TID 0000.0001)                 9.760858955588092E-04
(PID.TID 0000.0001)     ;
(PID.TID 0000.0001) surfSaltMinInit = /* minimum salt for carbon solver at initialization (ppt) */
(PID.TID 0000.0001)                 4.000000000000000E+00
(PID.TID 0000.0001)     ;
(PID.TID 0000.0001) surfSaltMaxInit = /* maximum salt for carbon solver at initialization (ppt) */
(PID.TID 0000.0001)                 5.000000000000000E+01
(PID.TID 0000.0001)     ;
(PID.TID 0000.0001) surfTempMinInit = /* minimum temp for carbon solver at initialization (degrees C)' */
(PID.TID 0000.0001)                -4.000000000000000E+00
(PID.TID 0000.0001)     ;
(PID.TID 0000.0001) surfTempMaxInit = /* maximum temp for carbon solver at initialization (degrees C)' */
(PID.TID 0000.0001)                 3.900000000000000E+01
(PID.TID 0000.0001)     ;
(PID.TID 0000.0001) surfDICMinInit = /* minimum DIC for carbon solver at initialization (mmol C m^-3) */
(PID.TID 0000.0001)                 1.000000000000000E+01
(PID.TID 0000.0001)     ;
(PID.TID 0000.0001) surfDICMaxInit = /* maximum DIC for carbon solver at initialization (mmol C m^-3) */
(PID.TID 0000.0001)                 4.000000000000000E+03
(PID.TID 0000.0001)     ;
(PID.TID 0000.0001) surfALKMinInit = /* minimum alkalinity for carbon solver at initialization (meq m^-3) */
(PID.TID 0000.0001)                 1.000000000000000E+01
(PID.TID 0000.0001)     ;
(PID.TID 0000.0001) surfALKMaxInit = /* maximum alkalinity for carbon solver at initialization (meq m^-3) */
(PID.TID 0000.0001)                 4.000000000000000E+03
(PID.TID 0000.0001)     ;
(PID.TID 0000.0001) surfPO4MinInit = /* minimum PO4 for carbon solver at initialization (mmol P m^-3) */
(PID.TID 0000.0001)                 1.000000000000000E-10
(PID.TID 0000.0001)     ;
(PID.TID 0000.0001) surfPO4MaxInit = /* maximum PO4 for carbon solver at initialization (mmol P m^-3) */
(PID.TID 0000.0001)                 1.000000000000000E+01
(PID.TID 0000.0001)     ;
(PID.TID 0000.0001) surfSiMinInit = /* minimum SiO2 for carbon solver at initialization (mmol Si m^-3) */
(PID.TID 0000.0001)                 1.000000000000000E-08
(PID.TID 0000.0001)     ;
(PID.TID 0000.0001) surfSiMaxInit = /* maximum SiO2 for carbon solver at initialization (mmol Si m^-3) */
(PID.TID 0000.0001)                 5.000000000000000E+02
(PID.TID 0000.0001)     ;
(PID.TID 0000.0001) surfSaltMin = /* minimum salt for carbon solver during run (ppt) */
(PID.TID 0000.0001)                 4.000000000000000E+00
(PID.TID 0000.0001)     ;
(PID.TID 0000.0001) surfSaltMax = /* maximum salt for carbon solver during run (ppt) */
(PID.TID 0000.0001)                 5.000000000000000E+01
(PID.TID 0000.0001)     ;
(PID.TID 0000.0001) surfTempMin = /* minimum temp for carbon solver during run (degrees C) */
(PID.TID 0000.0001)                -4.000000000000000E+00
(PID.TID 0000.0001)     ;
(PID.TID 0000.0001) surfTempMax = /* maximum temp for carbon solver during run (degrees C) */
(PID.TID 0000.0001)                 3.900000000000000E+01
(PID.TID 0000.0001)     ;
(PID.TID 0000.0001) surfDICMin = /* minimum DIC for carbon solver during run (mmol C m^-3) */
(PID.TID 0000.0001)                 4.000000000000000E+02
(PID.TID 0000.0001)     ;
(PID.TID 0000.0001) surfDICMax = /* maximum DIC for carbon solver during run (mmol C m^-3) */
(PID.TID 0000.0001)                 4.000000000000000E+03
(PID.TID 0000.0001)     ;
(PID.TID 0000.0001) surfALKMin = /* minimum alkalinity for carbon solver during run (meq m^-3) */
(PID.TID 0000.0001)                 4.000000000000000E+02
(PID.TID 0000.0001)     ;
(PID.TID 0000.0001) surfALKMax = /* maximum alkalinity for carbon solver during run (meq m^-3) */
(PID.TID 0000.0001)                 4.000000000000000E+03
(PID.TID 0000.0001)     ;
(PID.TID 0000.0001) surfPO4Min = /* minimum PO4 for carbon solver during run (mmol P m^-3) */
(PID.TID 0000.0001)                 1.000000000000000E-10
(PID.TID 0000.0001)     ;
(PID.TID 0000.0001) surfPO4Max = /* maximum PO4 for carbon solver during run (mmol P m^-3) */
(PID.TID 0000.0001)                 1.000000000000000E+01
(PID.TID 0000.0001)     ;
(PID.TID 0000.0001) surfSiMin = /* minimum SiO2 for carbon solver during run (mmol Si m^-3) */
(PID.TID 0000.0001)                 1.000000000000000E-08
(PID.TID 0000.0001)     ;
(PID.TID 0000.0001) surfSiMax = /* maximum SiO2 for carbon solver during run (mmol Si m^-3) */
(PID.TID 0000.0001)                 5.000000000000000E+02
(PID.TID 0000.0001)     ;
(PID.TID 0000.0001) diaz_ini_fac = /* reduce tracer concentrations by this factor on initialization */
(PID.TID 0000.0001)                 1.000000000000000E-01
(PID.TID 0000.0001)     ;
(PID.TID 0000.0001) O2crit = /* critical oxygen for O2/NO3 remineralization (mmol O2 m-3) */
(PID.TID 0000.0001)                 6.000000000000000E+00
(PID.TID 0000.0001)     ;
(PID.TID 0000.0001) denit_NP = /* ratio of n to p in denitrification process (mmol N / mmol P)' */
(PID.TID 0000.0001)                 1.200000000000000E+02
(PID.TID 0000.0001)     ;
(PID.TID 0000.0001) denit_NO3 = /* ratio of NO3 uptake to phos remineralization in denitrification (mmol N / mmol P) */
(PID.TID 0000.0001)                 1.040000000000000E+02
(PID.TID 0000.0001)     ;
(PID.TID 0000.0001) NO3crit = /* critical nitrate below which no denit (or remin) happens (mmol N m-3) */
(PID.TID 0000.0001)                 1.000000000000000E-02
(PID.TID 0000.0001)     ;
(PID.TID 0000.0001) PARmin = /* minimum light for photosynthesis; for non-Geider: 1.0 (uEin/m2/s) */
(PID.TID 0000.0001)                 1.000000000000000E-01
(PID.TID 0000.0001)     ;
(PID.TID 0000.0001) aphy_chl_ave = /* Chl-specific absorption coefficient (m2/mg Chl) */
(PID.TID 0000.0001)                 2.000000000000000E-02
(PID.TID 0000.0001)     ;
(PID.TID 0000.0001) chl2nmax = /* max Chl:N ratio for Chl synthesis following Moore 2002 (mg Chl / mmol N) */
(PID.TID 0000.0001)                 3.000000000000000E+00
(PID.TID 0000.0001)     ;
(PID.TID 0000.0001) synthcost = /* cost of biosynthesis (mmol C / mmol N) */
(PID.TID 0000.0001)                 0.000000000000000E+00
(PID.TID 0000.0001)     ;
(PID.TID 0000.0001) inhib_graz = /* inverse decay scale for grazing inhibition ((mmol C m-3)-1) */
(PID.TID 0000.0001)                 1.000000000000000E+00
(PID.TID 0000.0001)     ;
(PID.TID 0000.0001) inhib_graz_exp = /* exponent for grazing inhibition (0 to turn off inhibition) */
(PID.TID 0000.0001)                 0.000000000000000E+00
(PID.TID 0000.0001)     ;
(PID.TID 0000.0001) hillnumGraz = /* exponent for limiting quota uptake in grazing */
(PID.TID 0000.0001)                 1.000000000000000E-02
(PID.TID 0000.0001)     ;
(PID.TID 0000.0001) hollexp = /* grazing exponential 1= "Holling 2", 2= "Holling 3" */
(PID.TID 0000.0001)                 2.000000000000000E+00
(PID.TID 0000.0001)     ;
(PID.TID 0000.0001) phygrazmin = /* minimum total prey conc for grazing to occur (mmol C m-3) */
(PID.TID 0000.0001)                 1.200000000000000E-08
(PID.TID 0000.0001)     ;
(PID.TID 0000.0001) pcoefO2 = /* max O2-specific O2 uptake rate for aerobic bacteria (m3/mmol' O2/s) */
(PID.TID 0000.0001)                 3.365972222222222E-03
(PID.TID 0000.0001)     ;
(PID.TID 0000.0001) pmaxDIN = /* max DIN uptake rate for denitrifying bacteria (1/s) */
(PID.TID 0000.0001)                 2.314814814814815E-04
(PID.TID 0000.0001)     ;
(PID.TID 0000.0001) ksatDIN = /* half-saturation conc of dissolved inorganic nitrogen (mmol N' m-3) */
(PID.TID 0000.0001)                 1.000000000000000E-02
(PID.TID 0000.0001)     ;
(PID.TID 0000.0001) alpha_hydrol = /* increase in POM needed due to hydrolysis */
(PID.TID 0000.0001)                 2.000000000000000E+00
(PID.TID 0000.0001)     ;
(PID.TID 0000.0001) yod = /* organic matter yield of aerobic bacteria */
(PID.TID 0000.0001)                 2.000000000000000E-01
(PID.TID 0000.0001)     ;
(PID.TID 0000.0001) yoe = /* energy yield of aerobic bacteria */
(PID.TID 0000.0001)                 2.269807280513919E-01
(PID.TID 0000.0001)     ;
(PID.TID 0000.0001) ynd = /* organic matter yield of denitrifying bacteria */
(PID.TID 0000.0001)                 1.600000000000000E-01
(PID.TID 0000.0001)     ;
(PID.TID 0000.0001) yne = /* energy yield of denitrifying bacteria */
(PID.TID 0000.0001)                 2.161721219537066E-01
(PID.TID 0000.0001)     ;
(PID.TID 0000.0001) depthdenit = /* not implemented (depth for denitrification relaxation to start) (m) */
(PID.TID 0000.0001)                 1.850000000000000E+02
(PID.TID 0000.0001)     ;
(PID.TID 0000.0001) fracCDOM = /* fraction of remineralized POP contributing to CDOM */
(PID.TID 0000.0001)                 2.000000000000000E-02
(PID.TID 0000.0001)     ;
(PID.TID 0000.0001) CDOMdegrd = /* CDOM degradation rate (1/s) */
(PID.TID 0000.0001)                 3.858000000000000E-08
(PID.TID 0000.0001)     ;
(PID.TID 0000.0001) CDOMbleach = /* CDOM bleaching rate (1/s) */
(PID.TID 0000.0001)                 3.000000000000000E-06
(PID.TID 0000.0001)     ;
(PID.TID 0000.0001) PARCDOM = /* PAR where CDOM bleaching becomes maximal (uEin/m2/s) */
(PID.TID 0000.0001)                 7.000000000000000E+01
(PID.TID 0000.0001)     ;
(PID.TID 0000.0001) R_NP_CDOM = /* CDOM N:P ratio (mmol N / mmol P) */
(PID.TID 0000.0001)                 1.600000000000000E+01
(PID.TID 0000.0001)     ;
(PID.TID 0000.0001) R_FeP_CDOM = /* CDOM Fe:P ratio (mmol Fe / mmol P) */
(PID.TID 0000.0001)                 1.000000000000000E-03
(PID.TID 0000.0001)     ;
(PID.TID 0000.0001) R_CP_CDOM = /* CDOM C:P ratio (mmol C / mmol P) */
(PID.TID 0000.0001)                 1.200000000000000E+02
(PID.TID 0000.0001)     ;
(PID.TID 0000.0001) CDOMcoeff = /* P-specific absorption coefficient of CDOM (m2 / mmol P) */
(PID.TID 0000.0001)                 2.100000000000000E+01
(PID.TID 0000.0001)     ;
(PID.TID 0000.0001) kMinFeSed = /* minimum level index for iron sedimentation */
(PID.TID 0000.0001)                       2
(PID.TID 0000.0001)     ;
(PID.TID 0000.0001) kMaxFeSed = /* maximum level index for iron sedimentation */
(PID.TID 0000.0001)                      23
(PID.TID 0000.0001)     ;
(PID.TID 0000.0001) kMinFeVent = /* minimum level index for hydrothermal vents */
(PID.TID 0000.0001)                       0
(PID.TID 0000.0001)     ;
(PID.TID 0000.0001) isPhoto = /* 1: does photosynthesis, 0: not */
(PID.TID 0000.0001)     2 @        1,
(PID.TID 0000.0001)     2 @        0
(PID.TID 0000.0001)     ;
(PID.TID 0000.0001) bactType = /* 1: particle associated, 2: free living bacteria, 0: not bacteria */
(PID.TID 0000.0001)     4 @        0
(PID.TID 0000.0001)     ;
(PID.TID 0000.0001) isAerobic = /* 1: is aerobic bacteria (also set bactType), 0: not */
(PID.TID 0000.0001)     4 @        0
(PID.TID 0000.0001)     ;
(PID.TID 0000.0001) isDenit = /* 1: is dentrifying bacteria (also set (bactType), 0: not */
(PID.TID 0000.0001)     4 @        0
(PID.TID 0000.0001)     ;
(PID.TID 0000.0001) hasSi = /* 1: uses silica (Diatom), 0: not */
(PID.TID 0000.0001)     4 @        0
(PID.TID 0000.0001)     ;
(PID.TID 0000.0001) hasPIC = /* 1: calcifying, 0: set R_PICPOC to zero */
(PID.TID 0000.0001)     4 @        0
(PID.TID 0000.0001)     ;
(PID.TID 0000.0001) diazo = /* 1: use molecular instead of mineral nitrogen, 0: not */
(PID.TID 0000.0001)     4 @        0
(PID.TID 0000.0001)     ;
(PID.TID 0000.0001) useNH4 = /* 1: can use ammonia, 0: not */
(PID.TID 0000.0001)     2 @        1,
(PID.TID 0000.0001)     2 @        0
(PID.TID 0000.0001)     ;
(PID.TID 0000.0001) useNO2 = /* 1: can use nitrite, 0: not */
(PID.TID 0000.0001)     2 @        1,
(PID.TID 0000.0001)     2 @        0
(PID.TID 0000.0001)     ;
(PID.TID 0000.0001) useNO3 = /* 1: can use nitrate, 0: not */
(PID.TID 0000.0001)     2 @        1,
(PID.TID 0000.0001)     2 @        0
(PID.TID 0000.0001)     ;
(PID.TID 0000.0001) combNO = /* 1: combined nitrite/nitrate limitation, 0: not */
(PID.TID 0000.0001)     2 @        1,
(PID.TID 0000.0001)     2 @        0
(PID.TID 0000.0001)     ;
(PID.TID 0000.0001) isPrey = /* 1: can be grazed, 0: not */
(PID.TID 0000.0001)     2 @        1,
(PID.TID 0000.0001)     2 @        0
(PID.TID 0000.0001)     ;
(PID.TID 0000.0001) isPred = /* 1: can graze, 0: not */
(PID.TID 0000.0001)     2 @        0,
(PID.TID 0000.0001)     2 @        1
(PID.TID 0000.0001)     ;
(PID.TID 0000.0001) tempMort = /* 1: mortality is temperature dependent, 0: turn dependence off */
(PID.TID 0000.0001)     4 @        0
(PID.TID 0000.0001)     ;
(PID.TID 0000.0001) tempMort2 = /* 1: quadratic mortality is temperature dependent, 0: turn dependence off */
(PID.TID 0000.0001)     4 @        0
(PID.TID 0000.0001)     ;
(PID.TID 0000.0001) tempGraz = /* 1: grazing is temperature dependent, 0: turn dependence off */
(PID.TID 0000.0001)     4 @        1
(PID.TID 0000.0001)     ;
(PID.TID 0000.0001) Xmin = /* minimum abundance for mortality, respiration and exudation (mmol C m^-3) */
(PID.TID 0000.0001)     2 @  1.200000000000000E-18,
(PID.TID 0000.0001)     2 @  0.000000000000000E+00
(PID.TID 0000.0001)     ;
(PID.TID 0000.0001) amminhib = /* coefficient for NH4 inhibition of NO uptake ((mmol N m^-3)^-1) */
(PID.TID 0000.0001)     4 @  0.000000000000000E+00
(PID.TID 0000.0001)     ;
(PID.TID 0000.0001) acclimtimescl = /* rate of chlorophyll acclimation (s^-1) */
(PID.TID 0000.0001)     2 @  5.787037037037037E-06,
(PID.TID 0000.0001)     2 @  0.000000000000000E+00
(PID.TID 0000.0001)     ;
(PID.TID 0000.0001) mort = /* linear mortality rate (s^-1) */
(PID.TID 0000.0001)     2 @  2.500000000000000E-07,
(PID.TID 0000.0001)     2 @  2.000000000000000E-07
(PID.TID 0000.0001)     ;
(PID.TID 0000.0001) mort2 = /* quadratic mortality coefficient ((mmol C m^-3)^-1 s^-1) */
(PID.TID 0000.0001)     2 @  0.000000000000000E+00,
(PID.TID 0000.0001)     2 @  1.000000000000000E-06
(PID.TID 0000.0001)     ;
(PID.TID 0000.0001) ExportFracMort = /* fraction of linear mortality to POM */
(PID.TID 0000.0001)     4 @  1.000000000000000E-01
(PID.TID 0000.0001)     ;
(PID.TID 0000.0001) ExportFracMort2 = /* fraction of quadratic mortality to POM */
(PID.TID 0000.0001)     4 @  1.000000000000000E-01
(PID.TID 0000.0001)     ;
(PID.TID 0000.0001) ExportFracExude = /* fraction of exudation to POM */
(PID.TID 0000.0001)     4 @ -9.999999990000000E+08
(PID.TID 0000.0001)     ;
(PID.TID 0000.0001) FracExudeC = /* fraction of excess C exuded */
(PID.TID 0000.0001)     4 @  3.000000000000000E-01
(PID.TID 0000.0001)     ;
(PID.TID 0000.0001) phytoTempCoeff = /* coefficient for DARWIN_TEMP_VERSION 1 */
(PID.TID 0000.0001)     2 @  3.333333333333333E-01,
(PID.TID 0000.0001)     2 @  0.000000000000000E+00
(PID.TID 0000.0001)     ;
(PID.TID 0000.0001) phytoTempExp1 = /* coefficient for DARWIN_TEMP_VERSION 1 (exp(1/degrees C)) */
(PID.TID 0000.0001)     2 @  1.040000000000000E+00,
(PID.TID 0000.0001)     2 @  0.000000000000000E+00
(PID.TID 0000.0001)     ;
(PID.TID 0000.0001) phytoTempExp2 = /* coefficient for DARWIN_TEMP_RANGE */
(PID.TID 0000.0001)     2 @  3.000000000000000E-04,
(PID.TID 0000.0001)     2 @  0.000000000000000E+00
(PID.TID 0000.0001)     ;
(PID.TID 0000.0001) phytoTempOptimum = /* coefficient for DARWIN_TEMP_RANGE (degrees C) */
(PID.TID 0000.0001)     2 @  2.000000000000000E+00,
(PID.TID 0000.0001)     2 @  0.000000000000000E+00
(PID.TID 0000.0001)     ;
(PID.TID 0000.0001) phytoDecayPower = /* coefficient for DARWIN_TEMP_RANGE */
(PID.TID 0000.0001)     2 @  4.000000000000000E+00,
(PID.TID 0000.0001)     2 @  0.000000000000000E+00
(PID.TID 0000.0001)     ;
(PID.TID 0000.0001) phytoTempAe = /* coefficient for DARWIN_TEMP_VERSION 4 (1/degrees C) */
(PID.TID 0000.0001)     2 @  4.380000000000000E-02,
(PID.TID 0000.0001)     2 @  0.000000000000000E+00
(PID.TID 0000.0001)     ;
(PID.TID 0000.0001) hetTempAe = /* coefficient for DARWIN_TEMP_VERSION 4 (1/degrees C) */
(PID.TID 0000.0001)     4 @  4.380000000000000E-02
(PID.TID 0000.0001)     ;
(PID.TID 0000.0001) hetTempExp2 = /* coefficient for DARWIN_TEMP_VERSION 4 */
(PID.TID 0000.0001)     4 @  1.000000000000000E-03
(PID.TID 0000.0001)     ;
(PID.TID 0000.0001) hetTempOptimum = /* coefficient for DARWIN_TEMP_VERSION 4 (degrees C) */
(PID.TID 0000.0001)     4 @  2.000000000000000E+00
(PID.TID 0000.0001)     ;
(PID.TID 0000.0001) hetDecayPower = /* coefficient for DARWIN_TEMP_VERSION 4 */
(PID.TID 0000.0001)     4 @  4.000000000000000E+00
(PID.TID 0000.0001)     ;
(PID.TID 0000.0001) grazTempAe = /* coefficient for DARWIN_TEMP_VERSION 4 (1/degrees C) */
(PID.TID 0000.0001)     4 @  4.380000000000000E-02
(PID.TID 0000.0001)     ;
(PID.TID 0000.0001) grazTempExp2 = /* coefficient for DARWIN_TEMP_VERSION 4 */
(PID.TID 0000.0001)     4 @  1.000000000000000E-03
(PID.TID 0000.0001)     ;
(PID.TID 0000.0001) grazTempOptimum = /* coefficient for DARWIN_TEMP_VERSION 4 (degrees C) */
(PID.TID 0000.0001)     4 @  2.000000000000000E+00
(PID.TID 0000.0001)     ;
(PID.TID 0000.0001) grazDecayPower = /* coefficient for DARWIN_TEMP_VERSION 4 */
(PID.TID 0000.0001)     4 @  4.000000000000000E+00
(PID.TID 0000.0001)     ;
(PID.TID 0000.0001) R_NC = /* nitrogen-carbon ratio (not used with DARWIN_ALLOW_NQUOTA) (mmol N (mmol C)^-1) */
(PID.TID 0000.0001)     4 @  1.333333333333333E-01
(PID.TID 0000.0001)     ;
(PID.TID 0000.0001) R_PC = /* phosphorus-carbon ratio (not used with DARWIN_ALLOW_PQUOTA) (mmol P (mmol C)^-1) */
(PID.TID 0000.0001)     4 @  8.333333333333333E-03
(PID.TID 0000.0001)     ;
(PID.TID 0000.0001) R_SiC = /* silica-carbon ratio (not used with DARWIN_ALLOW_SIQUOTA) (mmol Si (mmol C)^-1) */
(PID.TID 0000.0001)     4 @  0.000000000000000E+00
(PID.TID 0000.0001)     ;
(PID.TID 0000.0001) R_FeC = /* iron-carbon ratio (not used with DARWIN_ALLOW_FEQUOTA) (mmol' Fe (mmol C)^-1) */
(PID.TID 0000.0001)     2 @  8.333333333333334E-06,
(PID.TID 0000.0001)     2 @  1.333333333333333E-06
(PID.TID 0000.0001)     ;
(PID.TID 0000.0001) R_ChlC = /* chlorophyll-carbon ratio (not used with DARWIN_ALLOW_CHLQUOTA) (mg Chl (mmol C)^-1) */
(PID.TID 0000.0001)     2 @  1.333333333333333E-01,
(PID.TID 0000.0001)     2 @  0.000000000000000E+00
(PID.TID 0000.0001)     ;
(PID.TID 0000.0001) R_PICPOC = /* inorganic-organic carbon ratio (mmol PIC (mmol POC)^-1) */
(PID.TID 0000.0001)     4 @  0.000000000000000E+00
(PID.TID 0000.0001)     ;
(PID.TID 0000.0001) biosink = /* sinking velocity (positive downwards) (m s^-1) */
(PID.TID 0000.0001)     2 @  1.054686334370406E-06,
(PID.TID 0000.0001)     2 @  0.000000000000000E+00
(PID.TID 0000.0001)     ;
(PID.TID 0000.0001) bioswim = /* upward swimming velocity (positive upwards) (m s^-1) */
(PID.TID 0000.0001)     4 @  0.000000000000000E+00
(PID.TID 0000.0001)     ;
(PID.TID 0000.0001) respRate = /* respiration rate (s^-1) */
(PID.TID 0000.0001)     4 @  0.000000000000000E+00
(PID.TID 0000.0001)     ;
(PID.TID 0000.0001) PCmax = /* maximum carbon-specific growth rate (s^-1) */
(PID.TID 0000.0001)     2 @  1.171787246603129E-05,
(PID.TID 0000.0001)     2 @  0.000000000000000E+00
(PID.TID 0000.0001)     ;
(PID.TID 0000.0001) Qnmax = /* maximum nitrogen quota (only with DARWIN_ALLOW_NQUOTA) (mmol' N (mmol C)^-1) */
(PID.TID 0000.0001)     2 @  1.000000000000000E+03,
(PID.TID 0000.0001)     2 @  2.000000000000000E-01
(PID.TID 0000.0001)     ;
(PID.TID 0000.0001) Qnmin = /* minimum nitrogen quota (only with DARWIN_ALLOW_NQUOTA) (mmol' N (mmol C)^-1) */
(PID.TID 0000.0001)     2 @  0.000000000000000E+00,
(PID.TID 0000.0001)     2 @  1.000000000000000E-01
(PID.TID 0000.0001)     ;
(PID.TID 0000.0001) Qpmax = /* maximum phosphorus quota (only with DARWIN_ALLOW_PQUOTA) (mmol P (mmol C)^-1) */
(PID.TID 0000.0001)     2 @  1.000000000000000E+03,
(PID.TID 0000.0001)     2 @  1.000000000000000E-02
(PID.TID 0000.0001)     ;
(PID.TID 0000.0001) Qpmin = /* minimum phosphorus quota (only with DARWIN_ALLOW_PQUOTA) (mmol P (mmol C)^-1) */
(PID.TID 0000.0001)     2 @  0.000000000000000E+00,
(PID.TID 0000.0001)     2 @  8.000000000000000E-03
(PID.TID 0000.0001)     ;
(PID.TID 0000.0001) Qsimax = /* maximum silica quota (only with DARWIN_ALLOW_SIQUOTA) (mmol Si (mmol C)^-1) */
(PID.TID 0000.0001)     4 @  0.000000000000000E+00
(PID.TID 0000.0001)     ;
(PID.TID 0000.0001) Qsimin = /* minimum silica quota (only with DARWIN_ALLOW_SIQUOTA) (mmol Si (mmol C)^-1) */
(PID.TID 0000.0001)     4 @  0.000000000000000E+00
(PID.TID 0000.0001)     ;
(PID.TID 0000.0001) Qfemax = /* maximum iron quota (only with DARWIN_ALLOW_FEQUOTA) (mmol Fe' (mmol C)^-1) */
(PID.TID 0000.0001)     2 @  1.000000000000000E+03,
(PID.TID 0000.0001)     2 @  2.000000000000000E-05
(PID.TID 0000.0001)     ;
(PID.TID 0000.0001) Qfemin = /* minimum iron quota (only with DARWIN_ALLOW_FEQUOTA) (mmol Fe' (mmol C)^-1) */
(PID.TID 0000.0001)     2 @  0.000000000000000E+00,
(PID.TID 0000.0001)     2 @  1.000000000000000E-06
(PID.TID 0000.0001)     ;
(PID.TID 0000.0001) VmaxNH4 = /* maximum ammonia uptake rate (only with DARWIN_ALLOW_NQUOTA) (mmol N (mmol C)^-1 s^-1) */
(PID.TID 0000.0001)     4 @  0.000000000000000E+00
(PID.TID 0000.0001)     ;
(PID.TID 0000.0001) VmaxNO2 = /* maximum nitrite uptake rate (only with DARWIN_ALLOW_NQUOTA) (mmol N (mmol C)^-1 s^-1) */
(PID.TID 0000.0001)     4 @  0.000000000000000E+00
(PID.TID 0000.0001)     ;
(PID.TID 0000.0001) VmaxNO3 = /* maximum nitrate uptake rate (only with DARWIN_ALLOW_NQUOTA) (mmol N (mmol C)^-1 s^-1) */
(PID.TID 0000.0001)                 3.720236453201971E-06,
(PID.TID 0000.0001)                 6.850000000000000E-06,
(PID.TID 0000.0001)     2 @  0.000000000000000E+00
(PID.TID 0000.0001)     ;
(PID.TID 0000.0001) VmaxN = /* maximum nitrogen uptake rate for diazotrophs (only with DARWIN_ALLOW_NQUOTA) (mmol N (mmol C)^-1 s^-1) */
(PID.TID 0000.0001)     2 @  9.957864838886123E-06,
(PID.TID 0000.0001)                 2.780521305500181E-06,
(PID.TID 0000.0001)                 7.764012522191707E-07
(PID.TID 0000.0001)     ;
(PID.TID 0000.0001) VmaxPO4 = /* maximum phosphate uptake rate (only with DARWIN_ALLOW_PQUOTA) (mmol P (mmol C)^-1 s^-1) */
(PID.TID 0000.0001)                 2.325000000000000E-08,
(PID.TID 0000.0001)                 4.280000000000000E-08,
(PID.TID 0000.0001)     2 @  0.000000000000000E+00
(PID.TID 0000.0001)     ;
(PID.TID 0000.0001) VmaxSiO2 = /* maximum silica uptake rate (only with DARWIN_ALLOW_SIQUOTA) (mmol Si (mmol C)^-1 s^-1) */
(PID.TID 0000.0001)     4 @  0.000000000000000E+00
(PID.TID 0000.0001)     ;
(PID.TID 0000.0001) VmaxFeT = /* maximum iron uptake rate (only with DARWIN_ALLOW_FEQUOTA) (mmol Fe (mmol C)^-1 s^-1) */
(PID.TID 0000.0001)     2 @  3.000000000000000E-09,
(PID.TID 0000.0001)     2 @  0.000000000000000E+00
(PID.TID 0000.0001)     ;
(PID.TID 0000.0001) ksatNH4 = /* half-saturation conc. for ammonia uptake/limitation (mmol N m^-3) */
(PID.TID 0000.0001)     2 @  1.264587619568573E-01,
(PID.TID 0000.0001)     2 @  0.000000000000000E+00
(PID.TID 0000.0001)     ;
(PID.TID 0000.0001) ksatNO2 = /* half-saturation conc. for nitrite uptake/limitation (mmol N m^-3) */
(PID.TID 0000.0001)     2 @  2.529175239137146E-01,
(PID.TID 0000.0001)     2 @  0.000000000000000E+00
(PID.TID 0000.0001)     ;
(PID.TID 0000.0001) ksatNO3 = /* half-saturation conc. for nitrate uptake/limitation (mmol N m^-3) */
(PID.TID 0000.0001)                 2.250000000000000E-01,
(PID.TID 0000.0001)                 7.000000000000000E-01,
(PID.TID 0000.0001)     2 @  0.000000000000000E+00
(PID.TID 0000.0001)     ;
(PID.TID 0000.0001) ksatPO4 = /* half-saturation conc. for phosphate uptake/limitation (mmol P m^-3) */
(PID.TID 0000.0001)                 3.650000000000000E+00,
(PID.TID 0000.0001)                 9.900000000000000E+00,
(PID.TID 0000.0001)     2 @  0.000000000000000E+00
(PID.TID 0000.0001)     ;
(PID.TID 0000.0001) ksatSiO2 = /* half-saturation conc. for silica uptake/limitation (mmol Si m^-3) */
(PID.TID 0000.0001)     4 @  0.000000000000000E+00
(PID.TID 0000.0001)     ;
(PID.TID 0000.0001) ksatFeT = /* half-saturation conc. for iron uptake/limitation (mmol Fe m^-3) */
(PID.TID 0000.0001)                 2.850000000000000E-04,
(PID.TID 0000.0001)                 3.500000000000000E-04,
(PID.TID 0000.0001)     2 @  0.000000000000000E+00
(PID.TID 0000.0001)     ;
(PID.TID 0000.0001) hillnumDIN = /* exponent for limiting quota uptake in DIN uptake */
(PID.TID 0000.0001)     2 @  0.000000000000000E+00
(PID.TID 0000.0001)     ;
(PID.TID 0000.0001) hillnumPO4 = /* exponent for limiting quota uptake in PO4 uptake */
(PID.TID 0000.0001)     2 @  1.000000000000000E+00
(PID.TID 0000.0001)     ;
(PID.TID 0000.0001) hillnumFeT = /* exponent for limiting quota uptake in FeT uptake */
(PID.TID 0000.0001)     2 @  1.000000000000000E+00
(PID.TID 0000.0001)     ;
(PID.TID 0000.0001) hillnumSiO2 = /* exponent for limiting quota uptake in SiO2 uptake */
(PID.TID 0000.0001)     2 @  1.000000000000000E+00
(PID.TID 0000.0001)     ;
(PID.TID 0000.0001) kexcc = /* exudation rate for carbon (s^-1) */
(PID.TID 0000.0001)     4 @  0.000000000000000E+00
(PID.TID 0000.0001)     ;
(PID.TID 0000.0001) kexcn = /* exudation rate for nitrogen (s^-1) */
(PID.TID 0000.0001)     4 @  0.000000000000000E+00
(PID.TID 0000.0001)     ;
(PID.TID 0000.0001) kexcp = /* exudation rate for phosphorus (s^-1) */
(PID.TID 0000.0001)     4 @  0.000000000000000E+00
(PID.TID 0000.0001)     ;
(PID.TID 0000.0001) kexcsi = /* exudation rate for silica (s^-1) */
(PID.TID 0000.0001)     4 @  0.000000000000000E+00
(PID.TID 0000.0001)     ;
(PID.TID 0000.0001) kexcfe = /* exudation rate for iron (s^-1) */
(PID.TID 0000.0001)     4 @  0.000000000000000E+00
(PID.TID 0000.0001)     ;
(PID.TID 0000.0001) ksatPAR = /* saturation coefficient for PAR (w/o GEIDER) ((uEin m^-2 s^-1)^-1) */
(PID.TID 0000.0001)     2 @  8.633640999999999E-03,
(PID.TID 0000.0001)     2 @  0.000000000000000E+00
(PID.TID 0000.0001)     ;
(PID.TID 0000.0001) kinhPAR = /* inhibition coefficient for PAR (w/o GEIDER) ((uEin m^-2 s^-1)^-1) */
(PID.TID 0000.0001)     4 @  0.000000000000000E+00
(PID.TID 0000.0001)     ;
(PID.TID 0000.0001) mQyield = /* maximum quantum yield (mmol C (uEin)^-1) */
(PID.TID 0000.0001)     4 @  0.000000000000000E+00
(PID.TID 0000.0001)     ;
(PID.TID 0000.0001) chl2cmax = /* maximum Chlorophyll-carbon ratio (mg Chl (mmol C)^-1) */
(PID.TID 0000.0001)     4 @  0.000000000000000E+00
(PID.TID 0000.0001)     ;
(PID.TID 0000.0001) grazemax = /* maximum grazing rate (s^-1) */
(PID.TID 0000.0001)     4 @  0.000000000000000E+00
(PID.TID 0000.0001)     ;
(PID.TID 0000.0001) kgrazesat = /* grazing half-saturation concentration (mmol C m^-3) */
(PID.TID 0000.0001)     2 @  0.000000000000000E+00,
(PID.TID 0000.0001)     2 @  1.500000000000000E+00
(PID.TID 0000.0001)     ;
(PID.TID 0000.0001) palat(:,   1) = /* palatability matrix */
(PID.TID 0000.0001)     4 @  0.000000000000000E+00
(PID.TID 0000.0001)     ;
(PID.TID 0000.0001) palat(:,   2) = /* palatability matrix */
(PID.TID 0000.0001)     4 @  0.000000000000000E+00
(PID.TID 0000.0001)     ;
(PID.TID 0000.0001) palat(:,   3) = /* palatability matrix */
(PID.TID 0000.0001)     2 @  1.000000000000000E+00,
(PID.TID 0000.0001)     2 @  0.000000000000000E+00
(PID.TID 0000.0001)     ;
(PID.TID 0000.0001) palat(:,   4) = /* palatability matrix */
(PID.TID 0000.0001)     2 @  1.000000000000000E+00,
(PID.TID 0000.0001)     2 @  0.000000000000000E+00
(PID.TID 0000.0001)     ;
(PID.TID 0000.0001) asseff(:,   1) = /* assimilation efficiency matrix */
(PID.TID 0000.0001)     4 @  0.000000000000000E+00
(PID.TID 0000.0001)     ;
(PID.TID 0000.0001) asseff(:,   2) = /* assimilation efficiency matrix */
(PID.TID 0000.0001)     4 @  0.000000000000000E+00
(PID.TID 0000.0001)     ;
(PID.TID 0000.0001) asseff(:,   3) = /* assimilation efficiency matrix */
(PID.TID 0000.0001)     2 @  7.000000000000000E-01,
(PID.TID 0000.0001)     2 @  0.000000000000000E+00
(PID.TID 0000.0001)     ;
(PID.TID 0000.0001) asseff(:,   4) = /* assimilation efficiency matrix */
(PID.TID 0000.0001)     2 @  7.000000000000000E-01,
(PID.TID 0000.0001)     2 @  0.000000000000000E+00
(PID.TID 0000.0001)     ;
(PID.TID 0000.0001) ExportFracPreyPred(:,   1) = /* fraction of unassimilated prey becoming particulate organic matter */
(PID.TID 0000.0001)     4 @  0.000000000000000E+00
(PID.TID 0000.0001)     ;
(PID.TID 0000.0001) ExportFracPreyPred(:,   2) = /* fraction of unassimilated prey becoming particulate organic matter */
(PID.TID 0000.0001)     4 @  0.000000000000000E+00
(PID.TID 0000.0001)     ;
(PID.TID 0000.0001) ExportFracPreyPred(:,   3) = /* fraction of unassimilated prey becoming particulate organic matter */
(PID.TID 0000.0001)     2 @  1.000000000000000E-01,
(PID.TID 0000.0001)     2 @  0.000000000000000E+00
(PID.TID 0000.0001)     ;
(PID.TID 0000.0001) ExportFracPreyPred(:,   4) = /* fraction of unassimilated prey becoming particulate organic matter */
(PID.TID 0000.0001)     2 @  1.000000000000000E-01,
(PID.TID 0000.0001)     2 @  0.000000000000000E+00
(PID.TID 0000.0001)     ;
(PID.TID 0000.0001) yield = /* bacterial growth yield for all organic matter */
(PID.TID 0000.0001)     4 @  0.000000000000000E+00
(PID.TID 0000.0001)     ;
(PID.TID 0000.0001) yieldO2 = /* bacterial growth yield for oxygen */
(PID.TID 0000.0001)     4 @  1.000000000000000E+00
(PID.TID 0000.0001)     ;
(PID.TID 0000.0001) yieldNO3 = /* bacterial growth yield for nitrate */
(PID.TID 0000.0001)     4 @  1.000000000000000E+00
(PID.TID 0000.0001)     ;
(PID.TID 0000.0001) ksatPON = /* half-saturation of PON for bacterial growth (mmol N m^-3) */
(PID.TID 0000.0001)     4 @  1.000000000000000E+00
(PID.TID 0000.0001)     ;
(PID.TID 0000.0001) ksatPOC = /* half-saturation of POC for bacterial growth (mmol C m^-3) */
(PID.TID 0000.0001)     4 @  7.500000000000000E+00
(PID.TID 0000.0001)     ;
(PID.TID 0000.0001) ksatPOP = /* half-saturation of POP for bacterial growth (mmol P m^-3) */
(PID.TID 0000.0001)     4 @  6.250000000000000E-02
(PID.TID 0000.0001)     ;
(PID.TID 0000.0001) ksatPOFe = /* half-saturation of POFe for bacterial growth (mmol Fe m^-3) */
(PID.TID 0000.0001)     2 @  6.250000000000000E-05,
(PID.TID 0000.0001)     2 @  9.999999999999997E-06
(PID.TID 0000.0001)     ;
(PID.TID 0000.0001) ksatDON = /* half-saturation of DON for bacterial growth (mmol N m^-3) */
(PID.TID 0000.0001)     4 @  1.000000000000000E+00
(PID.TID 0000.0001)     ;
(PID.TID 0000.0001) ksatDOC = /* half-saturation of DOC for bacterial growth (mmol C m^-3) */
(PID.TID 0000.0001)     4 @  7.500000000000000E+00
(PID.TID 0000.0001)     ;
(PID.TID 0000.0001) ksatDOP = /* half-saturation of DOP for bacterial growth (mmol P m^-3) */
(PID.TID 0000.0001)     4 @  6.250000000000000E-02
(PID.TID 0000.0001)     ;
(PID.TID 0000.0001) ksatDOFe = /* half-saturation of DOFe for bacterial growth (mmol Fe m^-3) */
(PID.TID 0000.0001)     2 @  6.250000000000000E-05,
(PID.TID 0000.0001)     2 @  9.999999999999997E-06
(PID.TID 0000.0001)     ;
(PID.TID 0000.0001) group = /* which group this type belongs to */
(PID.TID 0000.0001)     2 @        3,
(PID.TID 0000.0001)     2 @        9
(PID.TID 0000.0001)     ;
(PID.TID 0000.0001) igroup = /* index within group */
(PID.TID 0000.0001)                       1,
(PID.TID 0000.0001)                       2,
(PID.TID 0000.0001)                       1,
(PID.TID 0000.0001)                       2
(PID.TID 0000.0001)     ;
(PID.TID 0000.0001) biovol = /* volume (um^3) */
(PID.TID 0000.0001)     2 @  4.355118736855687E+00,
(PID.TID 0000.0001)                 4.909078761526034E+02,
(PID.TID 0000.0001)                 5.533501092157360E+04
(PID.TID 0000.0001)     ;
(PID.TID 0000.0001) qcarbon = /* cellular carbon content (mmol C/cell) */
(PID.TID 0000.0001)     2 @  7.176827455596965E-11,
(PID.TID 0000.0001)                 6.092738029662405E-09,
(PID.TID 0000.0001)                 5.172404788573352E-07
(PID.TID 0000.0001)     ;
(PID.TID 0000.0001) aptype = /* optical type (for absorption/scattering spectra) */
(PID.TID 0000.0001)     2 @        1,
(PID.TID 0000.0001)     2 @       11
(PID.TID 0000.0001)     ;
(PID.TID 0000.0001) normI = /* normalization factor for non-Geider light curve */
(PID.TID 0000.0001)     2 @  1.000000000000000E+00,
(PID.TID 0000.0001)     2 @  0.000000000000000E+00
(PID.TID 0000.0001)     ;
(PID.TID 0000.0001) alpha_mean = /* mean initial slope of light curve (over wavebands) (mmol C s-1 (uEin m^-2 s^-1)^-1 (mg Chl)^-1) */
(PID.TID 0000.0001)     4 @  0.000000000000000E+00
(PID.TID 0000.0001)     ;
(PID.TID 0000.0001) chl2cmin = /* minimum Chl:C ratio (function of chl2cmax and alpha_mean) (mg Chl (mmol C)^-1) */
(PID.TID 0000.0001)     4 @  0.000000000000000E+00
(PID.TID 0000.0001)     ;
(PID.TID 0000.0001) darwin_allomSpectra = /* enable/disable allometric scaling of plankton absorption and' scattering spectra */
(PID.TID 0000.0001)                   T
(PID.TID 0000.0001)     ;
(PID.TID 0000.0001) darwin_waterAbsorbFile = /* filename for reading water absorption and scattering spectra' */
(PID.TID 0000.0001)               'OPTICS_COEFF/optics_water_Aug2014_bandave25.txt'
(PID.TID 0000.0001)     ;
(PID.TID 0000.0001) darwin_phytoAbsorbFile = /* filename for reading plankton absorption and scattering spectra */
(PID.TID 0000.0001)               'OPTICS_COEFF/optics_phyto_10_bandave25_newsize5_diffsyn_zoo.txt'
(PID.TID 0000.0001)     ;
(PID.TID 0000.0001) darwin_particleAbsorbFile = /* filename for reading particle absorption and scattering spectra */
(PID.TID 0000.0001)               'OPTICS_COEFF/optics_detritus_8_sameas4_bandave25.txt'
(PID.TID 0000.0001)     ;
(PID.TID 0000.0001) darwin_part_size_P = /* conversion factor for particle absorption and scattering spectra (mmol P/particle) */
(PID.TID 0000.0001)                 1.000000000000000E-17
(PID.TID 0000.0001)     ;
(PID.TID 0000.0001) darwin_bbmin = /* minimum backscattering ratio (1/m) */
(PID.TID 0000.0001)                 2.000000000000000E-04
(PID.TID 0000.0001)     ;
(PID.TID 0000.0001) darwin_bbw = /* backscattering ratio of water */
(PID.TID 0000.0001)                 5.000000000000000E-01
(PID.TID 0000.0001)     ;
(PID.TID 0000.0001) darwin_lambda_aCDOM = /* reference wavelength for CDOM absorption spectra (nm) */
(PID.TID 0000.0001)                 4.500000000000000E+02
(PID.TID 0000.0001)     ;
(PID.TID 0000.0001) darwin_Sdom = /* coefficient for CDOM absorption spectra (1/nm) */
(PID.TID 0000.0001)                 1.450000000000000E-02
(PID.TID 0000.0001)     ;
(PID.TID 0000.0001) darwin_aCDOM_fac = /* factor for computing aCDOM from water+Chlorophyll absorption' */
(PID.TID 0000.0001)                 3.000000000000000E-01
(PID.TID 0000.0001)     ;
(PID.TID 0000.0001) darwin_rCDOM = /* recalcitrant CDOM concentration (mmol P/m3) */
(PID.TID 0000.0001)                 0.000000000000000E+00
(PID.TID 0000.0001)     ;
(PID.TID 0000.0001) darwin_RPOC = /* recalcitrant POC concentration (mmol C/m3) */
(PID.TID 0000.0001)                 0.000000000000000E+00
(PID.TID 0000.0001)     ;
(PID.TID 0000.0001) darwin_aCarCell = /* coefficient coefficient for scaling plankton spectra (mg C/cell) */
(PID.TID 0000.0001)                 1.090000000000000E-10
(PID.TID 0000.0001)     ;
(PID.TID 0000.0001) darwin_bCarCell = /* coefficient coefficient for scaling plankton spectra */
(PID.TID 0000.0001)                 9.910000000000000E-01
(PID.TID 0000.0001)     ;
(PID.TID 0000.0001) darwin_absorpSlope = /* slope for scaled absorption spectra */
(PID.TID 0000.0001)                -7.500000000000000E-02
(PID.TID 0000.0001)     ;
(PID.TID 0000.0001) darwin_bbbSlope = /* slope for scaled backscattering ratio spectra */
(PID.TID 0000.0001)                -1.458000000000000E+00
(PID.TID 0000.0001)     ;
(PID.TID 0000.0001) darwin_scatSwitchSizeLog = /* log of size for switching slopes (log10(um)) */
(PID.TID 0000.0001)                 2.860959000000000E-01,
(PID.TID 0000.0001)                 2.923177000000000E-01,
(PID.TID 0000.0001)                 2.983251000000000E-01,
(PID.TID 0000.0001)                 3.140574000000000E-01,
(PID.TID 0000.0001)                 3.261153000000000E-01,
(PID.TID 0000.0001)                 3.440134000000000E-01,
(PID.TID 0000.0001)                 3.577670000000000E-01,
(PID.TID 0000.0001)                 3.618763000000000E-01,
(PID.TID 0000.0001)                 3.695100000000000E-01,
(PID.TID 0000.0001)                 3.718916000000000E-01,
(PID.TID 0000.0001)                 3.706202000000000E-01,
(PID.TID 0000.0001)                 3.640583000000000E-01,
(PID.TID 0000.0001)                 3.682107000000000E-01
(PID.TID 0000.0001)     ;
(PID.TID 0000.0001) darwin_scatSlopeSmall = /* slope for small plankton */
(PID.TID 0000.0001)                 4.185404000000000E+00,
(PID.TID 0000.0001)                 4.208007000000000E+00,
(PID.TID 0000.0001)                 4.261307000000000E+00,
(PID.TID 0000.0001)                 4.302451000000000E+00,
(PID.TID 0000.0001)                 4.341968000000000E+00,
(PID.TID 0000.0001)                 4.373109000000000E+00,
(PID.TID 0000.0001)                 4.392320000000000E+00,
(PID.TID 0000.0001)                 4.416705000000000E+00,
(PID.TID 0000.0001)                 4.434653000000000E+00,
(PID.TID 0000.0001)                 4.454953000000000E+00,
(PID.TID 0000.0001)                 4.479809000000000E+00,
(PID.TID 0000.0001)                 4.507577000000000E+00,
(PID.TID 0000.0001)                 4.544071000000000E+00
(PID.TID 0000.0001)     ;
(PID.TID 0000.0001) darwin_scatSlopeLarge = /* slope for large plankton */
(PID.TID 0000.0001)                 1.723153000000000E+00,
(PID.TID 0000.0001)                 1.718186000000000E+00,
(PID.TID 0000.0001)                 1.699666000000000E+00,
(PID.TID 0000.0001)                 1.687533000000000E+00,
(PID.TID 0000.0001)                 1.710736000000000E+00,
(PID.TID 0000.0001)                 1.732242000000000E+00,
(PID.TID 0000.0001)                 1.763117000000000E+00,
(PID.TID 0000.0001)                 1.811451000000000E+00,
(PID.TID 0000.0001)                 1.834619000000000E+00,
(PID.TID 0000.0001)                 1.863836000000000E+00,
(PID.TID 0000.0001)                 1.897289000000000E+00,
(PID.TID 0000.0001)                 1.861866000000000E+00,
(PID.TID 0000.0001)                 1.907367000000000E+00
(PID.TID 0000.0001)     ;
(PID.TID 0000.0001) aw = /* absorption coefficient for water */
(PID.TID 0000.0001)                 5.300000000000000E-03,
(PID.TID 0000.0001)                 4.800000000000000E-03,
(PID.TID 0000.0001)                 8.500000000000001E-03,
(PID.TID 0000.0001)                 1.170000000000000E-02,
(PID.TID 0000.0001)                 2.230000000000000E-02,
(PID.TID 0000.0001)                 4.220000000000000E-02,
(PID.TID 0000.0001)                 5.540000000000000E-02,
(PID.TID 0000.0001)                 8.260000000000001E-02,
(PID.TID 0000.0001)                 2.095000000000000E-01,
(PID.TID 0000.0001)                 2.848000000000000E-01,
(PID.TID 0000.0001)                 3.530000000000000E-01,
(PID.TID 0000.0001)                 4.552000000000000E-01,
(PID.TID 0000.0001)                 5.507000000000000E-01
(PID.TID 0000.0001)     ;
(PID.TID 0000.0001) bw = /* total scattering coefficient for water */
(PID.TID 0000.0001)                 7.120000000000000E-03,
(PID.TID 0000.0001)                 5.810000000000000E-03,
(PID.TID 0000.0001)                 4.500000000000000E-03,
(PID.TID 0000.0001)                 3.560000000000000E-03,
(PID.TID 0000.0001)                 2.870000000000000E-03,
(PID.TID 0000.0001)                 2.310000000000000E-03,
(PID.TID 0000.0001)                 1.930000000000000E-03,
(PID.TID 0000.0001)                 1.650000000000000E-03,
(PID.TID 0000.0001)                 1.400000000000000E-03,
(PID.TID 0000.0001)                 1.150000000000000E-03,
(PID.TID 0000.0001)                 9.400000000000000E-04,
(PID.TID 0000.0001)                 7.500000000000000E-04,
(PID.TID 0000.0001)                 7.000000000000000E-04
(PID.TID 0000.0001)     ;
(PID.TID 0000.0001) apart_P = /* P-specific absorption coefficient for detritus */
(PID.TID 0000.0001)                 2.824330000000000E+00,
(PID.TID 0000.0001)                 2.384260000000000E+00,
(PID.TID 0000.0001)                 1.914990000000000E+00,
(PID.TID 0000.0001)                 1.545700000000000E+00,
(PID.TID 0000.0001)                 1.251420000000000E+00,
(PID.TID 0000.0001)                 1.014960000000000E+00,
(PID.TID 0000.0001)                 8.241809999999999E-01,
(PID.TID 0000.0001)                 6.696049999999999E-01,
(PID.TID 0000.0001)                 5.441649999999999E-01,
(PID.TID 0000.0001)                 4.422179999999999E-01,
(PID.TID 0000.0001)                 3.593350000000000E-01,
(PID.TID 0000.0001)                 2.918950000000000E-01,
(PID.TID 0000.0001)                 2.499330000000000E-01
(PID.TID 0000.0001)     ;
(PID.TID 0000.0001) bpart_P = /* P-specific total scattering coefficient for detritus */
(PID.TID 0000.0001)                 4.896760000000000E+01,
(PID.TID 0000.0001)                 4.697270000000000E+01,
(PID.TID 0000.0001)                 4.456039999999999E+01,
(PID.TID 0000.0001)                 4.237200000000000E+01,
(PID.TID 0000.0001)                 4.037880000000000E+01,
(PID.TID 0000.0001)                 3.856220000000000E+01,
(PID.TID 0000.0001)                 3.688870000000000E+01,
(PID.TID 0000.0001)                 3.535780000000000E+01,
(PID.TID 0000.0001)                 3.393690000000000E+01,
(PID.TID 0000.0001)                 3.262739999999999E+01,
(PID.TID 0000.0001)                 3.140900000000000E+01,
(PID.TID 0000.0001)                 3.027390000000000E+01,
(PID.TID 0000.0001)                 2.948320000000000E+01
(PID.TID 0000.0001)     ;
(PID.TID 0000.0001) bbpart_P = /* P-specific backscattering coefficient for detritus */
(PID.TID 0000.0001)    13 @  2.060000000000000E-01
(PID.TID 0000.0001)     ;
(PID.TID 0000.0001) exCDOM = /* wavelength-dependent part of CDOM absorption spectrum */
(PID.TID 0000.0001)                 2.064731099966487E+00,
(PID.TID 0000.0001)                 1.436917220986125E+00,
(PID.TID 0000.0001)                 1.000000000000000E+00,
(PID.TID 0000.0001)                 6.959343136786420E-01,
(PID.TID 0000.0001)                 4.843245689553624E-01,
(PID.TID 0000.0001)                 3.370580864936543E-01,
(PID.TID 0000.0001)                 2.345702880937976E-01,
(PID.TID 0000.0001)                 1.632455124539584E-01,
(PID.TID 0000.0001)                 1.136081536707637E-01,
(PID.TID 0000.0001)                 7.906381245316065E-02,
(PID.TID 0000.0001)                 5.502322005640721E-02,
(PID.TID 0000.0001)                 3.829254688634465E-02,
(PID.TID 0000.0001)                 2.664909733635549E-02
(PID.TID 0000.0001)     ;
(PID.TID 0000.0001) aphy_chl(:,   1) = /* phytoplankton Chl-specific absorption coefficient (m^2 (mg Chl)^-1) */
(PID.TID 0000.0001)     2 @  1.817102810534949E-02,
(PID.TID 0000.0001)     2 @  0.000000000000000E+00
(PID.TID 0000.0001)     ;
(PID.TID 0000.0001) aphy_chl(:,   2) = /* phytoplankton Chl-specific absorption coefficient (m^2 (mg Chl)^-1) */
(PID.TID 0000.0001)     2 @  2.141280776733672E-02,
(PID.TID 0000.0001)     2 @  0.000000000000000E+00
(PID.TID 0000.0001)     ;
(PID.TID 0000.0001) aphy_chl(:,   3) = /* phytoplankton Chl-specific absorption coefficient (m^2 (mg Chl)^-1) */
(PID.TID 0000.0001)     2 @  2.226590767838599E-02,
(PID.TID 0000.0001)     2 @  0.000000000000000E+00
(PID.TID 0000.0001)     ;
(PID.TID 0000.0001) aphy_chl(:,   4) = /* phytoplankton Chl-specific absorption coefficient (m^2 (mg Chl)^-1) */
(PID.TID 0000.0001)     2 @  1.842695807866427E-02,
(PID.TID 0000.0001)     2 @  0.000000000000000E+00
(PID.TID 0000.0001)     ;
(PID.TID 0000.0001) aphy_chl(:,   5) = /* phytoplankton Chl-specific absorption coefficient (m^2 (mg Chl)^-1) */
(PID.TID 0000.0001)     2 @  1.356428858568342E-02,
(PID.TID 0000.0001)     2 @  0.000000000000000E+00
(PID.TID 0000.0001)     ;
(PID.TID 0000.0001) aphy_chl(:,   6) = /* phytoplankton Chl-specific absorption coefficient (m^2 (mg Chl)^-1) */
(PID.TID 0000.0001)     2 @  8.530999110492718E-03,
(PID.TID 0000.0001)     2 @  0.000000000000000E+00
(PID.TID 0000.0001)     ;
(PID.TID 0000.0001) aphy_chl(:,   7) = /* phytoplankton Chl-specific absorption coefficient (m^2 (mg Chl)^-1) */
(PID.TID 0000.0001)     2 @  5.374529439610412E-03,
(PID.TID 0000.0001)     2 @  0.000000000000000E+00
(PID.TID 0000.0001)     ;
(PID.TID 0000.0001) aphy_chl(:,   8) = /* phytoplankton Chl-specific absorption coefficient (m^2 (mg Chl)^-1) */
(PID.TID 0000.0001)     2 @  3.753639608616796E-03,
(PID.TID 0000.0001)     2 @  0.000000000000000E+00
(PID.TID 0000.0001)     ;
(PID.TID 0000.0001) aphy_chl(:,   9) = /* phytoplankton Chl-specific absorption coefficient (m^2 (mg Chl)^-1) */
(PID.TID 0000.0001)     2 @  3.497709635302014E-03,
(PID.TID 0000.0001)     2 @  0.000000000000000E+00
(PID.TID 0000.0001)     ;
(PID.TID 0000.0001) aphy_chl(:,  10) = /* phytoplankton Chl-specific absorption coefficient (m^2 (mg Chl)^-1) */
(PID.TID 0000.0001)     2 @  4.350809546351286E-03,
(PID.TID 0000.0001)     2 @  0.000000000000000E+00
(PID.TID 0000.0001)     ;
(PID.TID 0000.0001) aphy_chl(:,  11) = /* phytoplankton Chl-specific absorption coefficient (m^2 (mg Chl)^-1) */
(PID.TID 0000.0001)     2 @  5.118599466295630E-03,
(PID.TID 0000.0001)     2 @  0.000000000000000E+00
(PID.TID 0000.0001)     ;
(PID.TID 0000.0001) aphy_chl(:,  12) = /* phytoplankton Chl-specific absorption coefficient (m^2 (mg Chl)^-1) */
(PID.TID 0000.0001)     2 @  1.117560883474546E-02,
(PID.TID 0000.0001)     2 @  0.000000000000000E+00
(PID.TID 0000.0001)     ;
(PID.TID 0000.0001) aphy_chl(:,  13) = /* phytoplankton Chl-specific absorption coefficient (m^2 (mg Chl)^-1) */
(PID.TID 0000.0001)     2 @  4.436119537456213E-03,
(PID.TID 0000.0001)     2 @  0.000000000000000E+00
(PID.TID 0000.0001)     ;
(PID.TID 0000.0001) aphy_chl_ps(:,   1) = /* part of aphy_chl that is used in photosynthesis (m^2 (mg Chl)^-1) */
(PID.TID 0000.0001)     2 @  1.817102810534949E-02,
(PID.TID 0000.0001)     2 @  0.000000000000000E+00
(PID.TID 0000.0001)     ;
(PID.TID 0000.0001) aphy_chl_ps(:,   2) = /* part of aphy_chl that is used in photosynthesis (m^2 (mg Chl)^-1) */
(PID.TID 0000.0001)     2 @  2.141280776733672E-02,
(PID.TID 0000.0001)     2 @  0.000000000000000E+00
(PID.TID 0000.0001)     ;
(PID.TID 0000.0001) aphy_chl_ps(:,   3) = /* part of aphy_chl that is used in photosynthesis (m^2 (mg Chl)^-1) */
(PID.TID 0000.0001)     2 @  2.226590767838599E-02,
(PID.TID 0000.0001)     2 @  0.000000000000000E+00
(PID.TID 0000.0001)     ;
(PID.TID 0000.0001) aphy_chl_ps(:,   4) = /* part of aphy_chl that is used in photosynthesis (m^2 (mg Chl)^-1) */
(PID.TID 0000.0001)     2 @  1.842695807866427E-02,
(PID.TID 0000.0001)     2 @  0.000000000000000E+00
(PID.TID 0000.0001)     ;
(PID.TID 0000.0001) aphy_chl_ps(:,   5) = /* part of aphy_chl that is used in photosynthesis (m^2 (mg Chl)^-1) */
(PID.TID 0000.0001)     2 @  1.356428858568342E-02,
(PID.TID 0000.0001)     2 @  0.000000000000000E+00
(PID.TID 0000.0001)     ;
(PID.TID 0000.0001) aphy_chl_ps(:,   6) = /* part of aphy_chl that is used in photosynthesis (m^2 (mg Chl)^-1) */
(PID.TID 0000.0001)     2 @  8.530999110492718E-03,
(PID.TID 0000.0001)     2 @  0.000000000000000E+00
(PID.TID 0000.0001)     ;
(PID.TID 0000.0001) aphy_chl_ps(:,   7) = /* part of aphy_chl that is used in photosynthesis (m^2 (mg Chl)^-1) */
(PID.TID 0000.0001)     2 @  5.374529439610412E-03,
(PID.TID 0000.0001)     2 @  0.000000000000000E+00
(PID.TID 0000.0001)     ;
(PID.TID 0000.0001) aphy_chl_ps(:,   8) = /* part of aphy_chl that is used in photosynthesis (m^2 (mg Chl)^-1) */
(PID.TID 0000.0001)     2 @  3.753639608616796E-03,
(PID.TID 0000.0001)     2 @  0.000000000000000E+00
(PID.TID 0000.0001)     ;
(PID.TID 0000.0001) aphy_chl_ps(:,   9) = /* part of aphy_chl that is used in photosynthesis (m^2 (mg Chl)^-1) */
(PID.TID 0000.0001)     2 @  3.497709635302014E-03,
(PID.TID 0000.0001)     2 @  0.000000000000000E+00
(PID.TID 0000.0001)     ;
(PID.TID 0000.0001) aphy_chl_ps(:,  10) = /* part of aphy_chl that is used in photosynthesis (m^2 (mg Chl)^-1) */
(PID.TID 0000.0001)     2 @  4.350809546351286E-03,
(PID.TID 0000.0001)     2 @  0.000000000000000E+00
(PID.TID 0000.0001)     ;
(PID.TID 0000.0001) aphy_chl_ps(:,  11) = /* part of aphy_chl that is used in photosynthesis (m^2 (mg Chl)^-1) */
(PID.TID 0000.0001)     2 @  5.118599466295630E-03,
(PID.TID 0000.0001)     2 @  0.000000000000000E+00
(PID.TID 0000.0001)     ;
(PID.TID 0000.0001) aphy_chl_ps(:,  12) = /* part of aphy_chl that is used in photosynthesis (m^2 (mg Chl)^-1) */
(PID.TID 0000.0001)     2 @  1.117560883474546E-02,
(PID.TID 0000.0001)     2 @  0.000000000000000E+00
(PID.TID 0000.0001)     ;
(PID.TID 0000.0001) aphy_chl_ps(:,  13) = /* part of aphy_chl that is used in photosynthesis (m^2 (mg Chl)^-1) */
(PID.TID 0000.0001)     2 @  4.436119537456213E-03,
(PID.TID 0000.0001)     2 @  0.000000000000000E+00
(PID.TID 0000.0001)     ;
(PID.TID 0000.0001) aphy_mgC(:,   1) = /* plankton carbon-specific absorption coefficient (m^2 (mg C)^-1) */
(PID.TID 0000.0001)     4 @  0.000000000000000E+00
(PID.TID 0000.0001)     ;
(PID.TID 0000.0001) aphy_mgC(:,   2) = /* plankton carbon-specific absorption coefficient (m^2 (mg C)^-1) */
(PID.TID 0000.0001)     4 @  0.000000000000000E+00
(PID.TID 0000.0001)     ;
(PID.TID 0000.0001) aphy_mgC(:,   3) = /* plankton carbon-specific absorption coefficient (m^2 (mg C)^-1) */
(PID.TID 0000.0001)     4 @  0.000000000000000E+00
(PID.TID 0000.0001)     ;
(PID.TID 0000.0001) aphy_mgC(:,   4) = /* plankton carbon-specific absorption coefficient (m^2 (mg C)^-1) */
(PID.TID 0000.0001)     4 @  0.000000000000000E+00
(PID.TID 0000.0001)     ;
(PID.TID 0000.0001) aphy_mgC(:,   5) = /* plankton carbon-specific absorption coefficient (m^2 (mg C)^-1) */
(PID.TID 0000.0001)     4 @  0.000000000000000E+00
(PID.TID 0000.0001)     ;
(PID.TID 0000.0001) aphy_mgC(:,   6) = /* plankton carbon-specific absorption coefficient (m^2 (mg C)^-1) */
(PID.TID 0000.0001)     4 @  0.000000000000000E+00
(PID.TID 0000.0001)     ;
(PID.TID 0000.0001) aphy_mgC(:,   7) = /* plankton carbon-specific absorption coefficient (m^2 (mg C)^-1) */
(PID.TID 0000.0001)     4 @  0.000000000000000E+00
(PID.TID 0000.0001)     ;
(PID.TID 0000.0001) aphy_mgC(:,   8) = /* plankton carbon-specific absorption coefficient (m^2 (mg C)^-1) */
(PID.TID 0000.0001)     4 @  0.000000000000000E+00
(PID.TID 0000.0001)     ;
(PID.TID 0000.0001) aphy_mgC(:,   9) = /* plankton carbon-specific absorption coefficient (m^2 (mg C)^-1) */
(PID.TID 0000.0001)     4 @  0.000000000000000E+00
(PID.TID 0000.0001)     ;
(PID.TID 0000.0001) aphy_mgC(:,  10) = /* plankton carbon-specific absorption coefficient (m^2 (mg C)^-1) */
(PID.TID 0000.0001)     4 @  0.000000000000000E+00
(PID.TID 0000.0001)     ;
(PID.TID 0000.0001) aphy_mgC(:,  11) = /* plankton carbon-specific absorption coefficient (m^2 (mg C)^-1) */
(PID.TID 0000.0001)     4 @  0.000000000000000E+00
(PID.TID 0000.0001)     ;
(PID.TID 0000.0001) aphy_mgC(:,  12) = /* plankton carbon-specific absorption coefficient (m^2 (mg C)^-1) */
(PID.TID 0000.0001)     4 @  0.000000000000000E+00
(PID.TID 0000.0001)     ;
(PID.TID 0000.0001) aphy_mgC(:,  13) = /* plankton carbon-specific absorption coefficient (m^2 (mg C)^-1) */
(PID.TID 0000.0001)     4 @  0.000000000000000E+00
(PID.TID 0000.0001)     ;
(PID.TID 0000.0001) bphy_mgC(:,   1) = /* carbon-specific total scattering coefficient (m^2 (mg C)^-1)' */
(PID.TID 0000.0001)     2 @  1.879399696404094E-02,
(PID.TID 0000.0001)                 2.764414750881533E-03,
(PID.TID 0000.0001)                 3.861071585818515E-04
(PID.TID 0000.0001)     ;
(PID.TID 0000.0001) bphy_mgC(:,   2) = /* carbon-specific total scattering coefficient (m^2 (mg C)^-1)' */
(PID.TID 0000.0001)     2 @  1.790139394086116E-02,
(PID.TID 0000.0001)                 2.604532270442625E-03,
(PID.TID 0000.0001)                 3.609416229332804E-04
(PID.TID 0000.0001)     ;
(PID.TID 0000.0001) bphy_mgC(:,   3) = /* carbon-specific total scattering coefficient (m^2 (mg C)^-1)' */
(PID.TID 0000.0001)     2 @  1.821861196184070E-02,
(PID.TID 0000.0001)                 2.512809806634792E-03,
(PID.TID 0000.0001)                 3.382199042819344E-04
(PID.TID 0000.0001)     ;
(PID.TID 0000.0001) bphy_mgC(:,   4) = /* carbon-specific total scattering coefficient (m^2 (mg C)^-1)' */
(PID.TID 0000.0001)     2 @  2.026293800844186E-02,
(PID.TID 0000.0001)                 2.450242726248300E-03,
(PID.TID 0000.0001)                 3.235561660413768E-04
(PID.TID 0000.0001)     ;
(PID.TID 0000.0001) bphy_mgC(:,   5) = /* carbon-specific total scattering coefficient (m^2 (mg C)^-1)' */
(PID.TID 0000.0001)     2 @  2.251503770196352E-02,
(PID.TID 0000.0001)                 2.518712228073457E-03,
(PID.TID 0000.0001)                 3.449768677299237E-04
(PID.TID 0000.0001)     ;
(PID.TID 0000.0001) bphy_mgC(:,   6) = /* carbon-specific total scattering coefficient (m^2 (mg C)^-1)' */
(PID.TID 0000.0001)     2 @  2.410149759825994E-02,
(PID.TID 0000.0001)                 2.494516352473526E-03,
(PID.TID 0000.0001)                 3.534336397796453E-04
(PID.TID 0000.0001)     ;
(PID.TID 0000.0001) bphy_mgC(:,   7) = /* carbon-specific total scattering coefficient (m^2 (mg C)^-1)' */
(PID.TID 0000.0001)     2 @  2.424846555541013E-02,
(PID.TID 0000.0001)                 2.422552815746015E-03,
(PID.TID 0000.0001)                 3.603406703841761E-04
(PID.TID 0000.0001)     ;
(PID.TID 0000.0001) bphy_mgC(:,   8) = /* carbon-specific total scattering coefficient (m^2 (mg C)^-1)' */
(PID.TID 0000.0001)     2 @  2.334365616279441E-02,
(PID.TID 0000.0001)                 2.433739109944257E-03,
(PID.TID 0000.0001)                 3.906380157066715E-04
(PID.TID 0000.0001)     ;
(PID.TID 0000.0001) bphy_mgC(:,   9) = /* carbon-specific total scattering coefficient (m^2 (mg C)^-1)' */
(PID.TID 0000.0001)     2 @  2.226078993568639E-02,
(PID.TID 0000.0001)                 2.364837215900671E-03,
(PID.TID 0000.0001)                 3.936848001388024E-04
(PID.TID 0000.0001)     ;
(PID.TID 0000.0001) bphy_mgC(:,  10) = /* carbon-specific total scattering coefficient (m^2 (mg C)^-1)' */
(PID.TID 0000.0001)     2 @  2.072580172895542E-02,
(PID.TID 0000.0001)                 2.293016525302569E-03,
(PID.TID 0000.0001)                 3.997044732180662E-04
(PID.TID 0000.0001)     ;
(PID.TID 0000.0001) bphy_mgC(:,  11) = /* carbon-specific total scattering coefficient (m^2 (mg C)^-1)' */
(PID.TID 0000.0001)     2 @  1.909179211739449E-02,
(PID.TID 0000.0001)                 2.194606355065006E-03,
(PID.TID 0000.0001)                 4.032462231981964E-04
(PID.TID 0000.0001)     ;
(PID.TID 0000.0001) bphy_mgC(:,  12) = /* carbon-specific total scattering coefficient (m^2 (mg C)^-1)' */
(PID.TID 0000.0001)     2 @  1.809728950016837E-02,
(PID.TID 0000.0001)                 1.996032031414607E-03,
(PID.TID 0000.0001)                 3.468581076325358E-04
(PID.TID 0000.0001)     ;
(PID.TID 0000.0001) bphy_mgC(:,  13) = /* carbon-specific total scattering coefficient (m^2 (mg C)^-1)' */
(PID.TID 0000.0001)     2 @  2.025924797983885E-02,
(PID.TID 0000.0001)                 2.141075745635967E-03,
(PID.TID 0000.0001)                 3.997045202952920E-04
(PID.TID 0000.0001)     ;
(PID.TID 0000.0001) bbphy_mgC(:,   1) = /* carbon-specific backscattering coefficient (m^2 (mg C)^-1) */
(PID.TID 0000.0001)     2 @  2.694696563788579E-05,
(PID.TID 0000.0001)                 2.494168537148367E-06,
(PID.TID 0000.0001)                 3.505568424897260E-08
(PID.TID 0000.0001)     ;
(PID.TID 0000.0001) bbphy_mgC(:,   2) = /* carbon-specific backscattering coefficient (m^2 (mg C)^-1) */
(PID.TID 0000.0001)     2 @  2.566714511647571E-05,
(PID.TID 0000.0001)                 2.349915996090699E-06,
(PID.TID 0000.0001)                 3.277083909123757E-08
(PID.TID 0000.0001)     ;
(PID.TID 0000.0001) bbphy_mgC(:,   3) = /* carbon-specific backscattering coefficient (m^2 (mg C)^-1) */
(PID.TID 0000.0001)     2 @  2.612197455629146E-05,
(PID.TID 0000.0001)                 2.267160221724252E-06,
(PID.TID 0000.0001)                 3.070787450503005E-08
(PID.TID 0000.0001)     ;
(PID.TID 0000.0001) bbphy_mgC(:,   4) = /* carbon-specific backscattering coefficient (m^2 (mg C)^-1) */
(PID.TID 0000.0001)     2 @  2.905314368629602E-05,
(PID.TID 0000.0001)                 2.210709631843896E-06,
(PID.TID 0000.0001)                 2.937651514987424E-08
(PID.TID 0000.0001)     ;
(PID.TID 0000.0001) bbphy_mgC(:,   5) = /* carbon-specific backscattering coefficient (m^2 (mg C)^-1) */
(PID.TID 0000.0001)     2 @  3.228222013930046E-05,
(PID.TID 0000.0001)                 2.272485628789387E-06,
(PID.TID 0000.0001)                 3.132135698482806E-08
(PID.TID 0000.0001)     ;
(PID.TID 0000.0001) bbphy_mgC(:,   6) = /* carbon-specific backscattering coefficient (m^2 (mg C)^-1) */
(PID.TID 0000.0001)     2 @  3.455689754789952E-05,
(PID.TID 0000.0001)                 2.250655115972575E-06,
(PID.TID 0000.0001)                 3.208916955745543E-08
(PID.TID 0000.0001)     ;
(PID.TID 0000.0001) bbphy_mgC(:,   7) = /* carbon-specific backscattering coefficient (m^2 (mg C)^-1) */
(PID.TID 0000.0001)     2 @  3.476762124327810E-05,
(PID.TID 0000.0001)                 2.185726657219980E-06,
(PID.TID 0000.0001)                 3.271627702901788E-08
(PID.TID 0000.0001)     ;
(PID.TID 0000.0001) bbphy_mgC(:,   8) = /* carbon-specific backscattering coefficient (m^2 (mg C)^-1) */
(PID.TID 0000.0001)     2 @  3.347029914312545E-05,
(PID.TID 0000.0001)                 2.195819391324962E-06,
(PID.TID 0000.0001)                 3.546705268184051E-08
(PID.TID 0000.0001)     ;
(PID.TID 0000.0001) bbphy_mgC(:,   9) = /* carbon-specific backscattering coefficient (m^2 (mg C)^-1) */
(PID.TID 0000.0001)     2 @  3.191767789559956E-05,
(PID.TID 0000.0001)                 2.133653272359405E-06,
(PID.TID 0000.0001)                 3.574367825236804E-08
(PID.TID 0000.0001)     ;
(PID.TID 0000.0001) bbphy_mgC(:,  10) = /* carbon-specific backscattering coefficient (m^2 (mg C)^-1) */
(PID.TID 0000.0001)     2 @  2.971680095917776E-05,
(PID.TID 0000.0001)                 2.068853695252196E-06,
(PID.TID 0000.0001)                 3.629022020078409E-08
(PID.TID 0000.0001)     ;
(PID.TID 0000.0001) bbphy_mgC(:,  11) = /* carbon-specific backscattering coefficient (m^2 (mg C)^-1) */
(PID.TID 0000.0001)     2 @  2.737394643286521E-05,
(PID.TID 0000.0001)                 1.980063997445934E-06,
(PID.TID 0000.0001)                 3.661178499499376E-08
(PID.TID 0000.0001)     ;
(PID.TID 0000.0001) bbphy_mgC(:,  12) = /* carbon-specific backscattering coefficient (m^2 (mg C)^-1) */
(PID.TID 0000.0001)     2 @  2.594802155352983E-05,
(PID.TID 0000.0001)                 1.800902086167461E-06,
(PID.TID 0000.0001)                 3.149215970256259E-08
(PID.TID 0000.0001)     ;
(PID.TID 0000.0001) bbphy_mgC(:,  13) = /* carbon-specific backscattering coefficient (m^2 (mg C)^-1) */
(PID.TID 0000.0001)     2 @  2.904785289721277E-05,
(PID.TID 0000.0001)                 1.931766482838291E-06,
(PID.TID 0000.0001)                 3.629022447504921E-08
(PID.TID 0000.0001)     ;
(PID.TID 0000.0001) alphachl(:,   1) = /* Chlorophyll-specific initial slope for photosynthesis */
(PID.TID 0000.0001)     4 @  0.000000000000000E+00
(PID.TID 0000.0001)     ;
(PID.TID 0000.0001) alphachl(:,   2) = /* Chlorophyll-specific initial slope for photosynthesis */
(PID.TID 0000.0001)     4 @  0.000000000000000E+00
(PID.TID 0000.0001)     ;
(PID.TID 0000.0001) alphachl(:,   3) = /* Chlorophyll-specific initial slope for photosynthesis */
(PID.TID 0000.0001)     4 @  0.000000000000000E+00
(PID.TID 0000.0001)     ;
(PID.TID 0000.0001) alphachl(:,   4) = /* Chlorophyll-specific initial slope for photosynthesis */
(PID.TID 0000.0001)     4 @  0.000000000000000E+00
(PID.TID 0000.0001)     ;
(PID.TID 0000.0001) alphachl(:,   5) = /* Chlorophyll-specific initial slope for photosynthesis */
(PID.TID 0000.0001)     4 @  0.000000000000000E+00
(PID.TID 0000.0001)     ;
(PID.TID 0000.0001) alphachl(:,   6) = /* Chlorophyll-specific initial slope for photosynthesis */
(PID.TID 0000.0001)     4 @  0.000000000000000E+00
(PID.TID 0000.0001)     ;
(PID.TID 0000.0001) alphachl(:,   7) = /* Chlorophyll-specific initial slope for photosynthesis */
(PID.TID 0000.0001)     4 @  0.000000000000000E+00
(PID.TID 0000.0001)     ;
(PID.TID 0000.0001) alphachl(:,   8) = /* Chlorophyll-specific initial slope for photosynthesis */
(PID.TID 0000.0001)     4 @  0.000000000000000E+00
(PID.TID 0000.0001)     ;
(PID.TID 0000.0001) alphachl(:,   9) = /* Chlorophyll-specific initial slope for photosynthesis */
(PID.TID 0000.0001)     4 @  0.000000000000000E+00
(PID.TID 0000.0001)     ;
(PID.TID 0000.0001) alphachl(:,  10) = /* Chlorophyll-specific initial slope for photosynthesis */
(PID.TID 0000.0001)     4 @  0.000000000000000E+00
(PID.TID 0000.0001)     ;
(PID.TID 0000.0001) alphachl(:,  11) = /* Chlorophyll-specific initial slope for photosynthesis */
(PID.TID 0000.0001)     4 @  0.000000000000000E+00
(PID.TID 0000.0001)     ;
(PID.TID 0000.0001) alphachl(:,  12) = /* Chlorophyll-specific initial slope for photosynthesis */
(PID.TID 0000.0001)     4 @  0.000000000000000E+00
(PID.TID 0000.0001)     ;
(PID.TID 0000.0001) alphachl(:,  13) = /* Chlorophyll-specific initial slope for photosynthesis */
(PID.TID 0000.0001)     4 @  0.000000000000000E+00
(PID.TID 0000.0001)     ;
(PID.TID 0000.0001) DARWIN_CHECK: iPtr darwin       PTRACERS_names
(PID.TID 0000.0001) DARWIN_CHECK:    1 DIC       DIC
(PID.TID 0000.0001) DARWIN_CHECK:    2 NO3       NO3
(PID.TID 0000.0001) DARWIN_CHECK:    3 NO2       NO2
(PID.TID 0000.0001) DARWIN_CHECK:    4 NH4       NH4
(PID.TID 0000.0001) DARWIN_CHECK:    5 PO4       PO4
(PID.TID 0000.0001) DARWIN_CHECK:    6 FeT       FeT
(PID.TID 0000.0001) DARWIN_CHECK:    7 SiO2      SiO2
(PID.TID 0000.0001) DARWIN_CHECK:    8 DOC       DOC
(PID.TID 0000.0001) DARWIN_CHECK:    9 DON       DON
(PID.TID 0000.0001) DARWIN_CHECK:   10 DOP       DOP
(PID.TID 0000.0001) DARWIN_CHECK:   11 DOFe      DOFe
(PID.TID 0000.0001) DARWIN_CHECK:   12 POC       POC
(PID.TID 0000.0001) DARWIN_CHECK:   13 PON       PON
(PID.TID 0000.0001) DARWIN_CHECK:   14 POP       POP
(PID.TID 0000.0001) DARWIN_CHECK:   15 POFe      POFe
(PID.TID 0000.0001) DARWIN_CHECK:   16 POSi      POSi
(PID.TID 0000.0001) DARWIN_CHECK:   17 PIC       PIC
(PID.TID 0000.0001) DARWIN_CHECK:   18 ALK       ALK
(PID.TID 0000.0001) DARWIN_CHECK:   19 O2        O2
(PID.TID 0000.0001) DARWIN_CHECK:   20 CDOM    1 CDOM01
(PID.TID 0000.0001) DARWIN_CHECK:   21 c       1 c01
(PID.TID 0000.0001) DARWIN_CHECK:   22 c       2 c02
(PID.TID 0000.0001) DARWIN_CHECK:   23 c       3 c03
(PID.TID 0000.0001) DARWIN_CHECK:   24 c       4 c04
(PID.TID 0000.0001) DARWIN_CHECK:   25 n       1 n01
(PID.TID 0000.0001) DARWIN_CHECK:   26 n       2 n02
(PID.TID 0000.0001) DARWIN_CHECK:   27 n       3 n03
(PID.TID 0000.0001) DARWIN_CHECK:   28 n       4 n04
(PID.TID 0000.0001) DARWIN_CHECK:   29 p       1 p01
(PID.TID 0000.0001) DARWIN_CHECK:   30 p       2 p02
(PID.TID 0000.0001) DARWIN_CHECK:   31 p       3 p03
(PID.TID 0000.0001) DARWIN_CHECK:   32 p       4 p04
(PID.TID 0000.0001) DARWIN_CHECK:   33 fe      1 fe01
(PID.TID 0000.0001) DARWIN_CHECK:   34 fe      2 fe02
(PID.TID 0000.0001) DARWIN_CHECK:   35 fe      3 fe03
(PID.TID 0000.0001) DARWIN_CHECK:   36 fe      4 fe04
(PID.TID 0000.0001) DARWIN_CHECK:
(PID.TID 0000.0001) DARWIN_CHECK: iPtr iPlk                      ESD  grp                         grp_name
(PID.TID 0000.0001) DARWIN_CHECK:   21    1   0.2967452323683433E+01    3 PicoEuk
(PID.TID 0000.0001) DARWIN_CHECK:   22    2   0.2967452323683433E+01    3 PicoEuk
(PID.TID 0000.0001) DARWIN_CHECK:   23    3   0.1433453964588659E+02    9 Zoo
(PID.TID 0000.0001) DARWIN_CHECK:   24    4   0.6924425549133598E+02    9 Zoo
(PID.TID 0000.0001) GCHEM_CHECK  <-- Ends Normally
(PID.TID 0000.0001) 
(PID.TID 0000.0001) OFFLINE_CHECK: #define OFFLINE
(PID.TID 0000.0001) offlineLoadGMRedi= /* load (not compute) GMRedi tensor */
(PID.TID 0000.0001)                   T
(PID.TID 0000.0001)     ;
(PID.TID 0000.0001) offlineLoadKPP= /* load (not compute) KPP mixing coeff */
(PID.TID 0000.0001)                   T
(PID.TID 0000.0001)     ;
(PID.TID 0000.0001) offlineLoadConvec= /* load (not compute) Convect Mix */
(PID.TID 0000.0001)                   F
(PID.TID 0000.0001)     ;
(PID.TID 0000.0001) offlineIter0 = /* initial offline field timestep */
(PID.TID 0000.0001)                   78912
(PID.TID 0000.0001)     ;
(PID.TID 0000.0001) offlineTimeOffset = /* time offset [s] */
(PID.TID 0000.0001)                 0.000000000000000E+00
(PID.TID 0000.0001)     ;
(PID.TID 0000.0001) offlineLoadPrec = /* precision (32,64) of offline files */
(PID.TID 0000.0001)                      32
(PID.TID 0000.0001)     ;
(PID.TID 0000.0001) deltaToffline = /* time-step to load offline files */
(PID.TID 0000.0001)                 3.600000000000000E+03
(PID.TID 0000.0001)     ;
(PID.TID 0000.0001) offlineForcingPeriod= /* time interval between reccords [s] */
(PID.TID 0000.0001)                 8.640000000000000E+04
(PID.TID 0000.0001)     ;
(PID.TID 0000.0001) offlineForcingCycle = /* length of 1 cycle [s] */
(PID.TID 0000.0001)                 3.110400000000000E+07
(PID.TID 0000.0001)     ;
(PID.TID 0000.0001) UvelFile = /* file name of loaded uVel field */
(PID.TID 0000.0001)               'ECCO_Iter3.73daily/DDuvel/DDuvel'
(PID.TID 0000.0001)     ;
(PID.TID 0000.0001) OFFLINE_CHECK: done
(PID.TID 0000.0001) GAD_CHECK: #define ALLOW_GENERIC_ADVDIFF
(PID.TID 0000.0001) // =======================================================
(PID.TID 0000.0001) // Check Model config. (CONFIG_CHECK):
(PID.TID 0000.0001) // CONFIG_CHECK : Normal End
(PID.TID 0000.0001) // =======================================================
(PID.TID 0000.0001) 
(PID.TID 0000.0001)  write diagnostics summary to file ioUnit:      6
Iter.Nb:         0 ; Time(s):  0.0000000000000E+00
------------------------------------------------------------------------
2D/3D diagnostics: Number of lists:     5
------------------------------------------------------------------------
listId=    1 ; file name: 3d
 nFlds, nActive,       freq     &     phase        , nLev               
   92  |   92  |      3600.000000         0.000000 |  23
 levels:   1   2   3   4   5   6   7   8   9  10  11  12  13  14  15  16  17  18  19  20  21  22  23
 diag# | name   |   ipt  |  iMate | kLev|   count |   mate.C|           
   267 |TRAC01  |      1 |      0 |  23 |       0 |
   282 |TRAC02  |     24 |      0 |  23 |       0 |
   297 |TRAC03  |     47 |      0 |  23 |       0 |
   312 |TRAC04  |     70 |      0 |  23 |       0 |
   327 |TRAC05  |     93 |      0 |  23 |       0 |
   342 |TRAC06  |    116 |      0 |  23 |       0 |
   357 |TRAC07  |    139 |      0 |  23 |       0 |
   372 |TRAC08  |    162 |      0 |  23 |       0 |
   387 |TRAC09  |    185 |      0 |  23 |       0 |
   402 |TRAC10  |    208 |      0 |  23 |       0 |
   417 |TRAC11  |    231 |      0 |  23 |       0 |
   432 |TRAC12  |    254 |      0 |  23 |       0 |
   447 |TRAC13  |    277 |      0 |  23 |       0 |
   462 |TRAC14  |    300 |      0 |  23 |       0 |
   477 |TRAC15  |    323 |      0 |  23 |       0 |
   492 |TRAC16  |    346 |      0 |  23 |       0 |
   507 |TRAC17  |    369 |      0 |  23 |       0 |
   522 |TRAC18  |    392 |      0 |  23 |       0 |
   537 |TRAC19  |    415 |      0 |  23 |       0 |
   552 |TRAC20  |    438 |      0 |  23 |       0 |
   567 |TRAC21  |    461 |      0 |  23 |       0 |
   582 |TRAC22  |    484 |      0 |  23 |       0 |
   597 |TRAC23  |    507 |      0 |  23 |       0 |
   612 |TRAC24  |    530 |      0 |  23 |       0 |
   627 |TRAC25  |    553 |      0 |  23 |       0 |
   642 |TRAC26  |    576 |      0 |  23 |       0 |
   657 |TRAC27  |    599 |      0 |  23 |       0 |
   672 |TRAC28  |    622 |      0 |  23 |       0 |
   687 |TRAC29  |    645 |      0 |  23 |       0 |
   702 |TRAC30  |    668 |      0 |  23 |       0 |
   717 |TRAC31  |    691 |      0 |  23 |       0 |
   732 |TRAC32  |    714 |      0 |  23 |       0 |
   747 |TRAC33  |    737 |      0 |  23 |       0 |
   762 |TRAC34  |    760 |      0 |  23 |       0 |
   777 |TRAC35  |    783 |      0 |  23 |       0 |
   792 |TRAC36  |    806 |      0 |  23 |       0 |
  1020 |PAR     |    829 |      0 |  23 |       0 |
   810 |PP      |    852 |      0 |  23 |       0 |
   811 |Nfix    |    875 |      0 |  23 |       0 |
   812 |Denit   |    898 |      0 |  23 |       0 |
  1143 |pH      |    921 |      0 |  23 |       0 |
  1144 |pCO2    |    944 |      0 |  23 |       0 |
  1108 |PC0001  |    967 |      0 |  23 |       0 |
   814 |PChl0001|    990 |      0 |  23 |       0 |
   815 |VN0001  |   1013 |      0 |  23 |       0 |
   816 |MODE0001|   1036 |      0 |  23 |       0 |
   817 |Fe_C0001|   1059 |      0 |  23 |       0 |
   818 |exQc0001|   1082 |      0 |  23 |       0 |
   819 |PCg0001 |   1105 |      0 |  23 |       0 |
   820 |CChl0001|   1128 |      0 |  23 |       0 |
   821 |NChl0001|   1151 |      0 |  23 |       0 |
   822 |NPho0001|   1174 |      0 |  23 |       0 |
   823 |NSyn0001|   1197 |      0 |  23 |       0 |
   824 |NPrn0001|   1220 |      0 |  23 |       0 |
   825 |NRNA0001|   1243 |      0 |  23 |       0 |
   826 |NDNA0001|   1266 |      0 |  23 |       0 |
   827 |NSTO0001|   1289 |      0 |  23 |       0 |
   828 |NEXC0001|   1312 |      0 |  23 |       0 |
   829 |PRNA0001|   1335 |      0 |  23 |       0 |
   830 |PDNA0001|   1358 |      0 |  23 |       0 |
   831 |PTHY0001|   1381 |      0 |  23 |       0 |
   832 |PCON0001|   1404 |      0 |  23 |       0 |
   833 |PSTO0001|   1427 |      0 |  23 |       0 |
   834 |PEXC0001|   1450 |      0 |  23 |       0 |
   835 |FPHO0001|   1473 |      0 |  23 |       0 |
   836 |FSTO0001|   1496 |      0 |  23 |       0 |
   837 |FEXC0001|   1519 |      0 |  23 |       0 |
   844 |CChl0002|   1542 |      0 |  23 |       0 |
   845 |NChl0002|   1565 |      0 |  23 |       0 |
   846 |NPho0002|   1588 |      0 |  23 |       0 |
   847 |NSyn0002|   1611 |      0 |  23 |       0 |
   848 |NPrn0002|   1634 |      0 |  23 |       0 |
   849 |NRNA0002|   1657 |      0 |  23 |       0 |
   850 |NDNA0002|   1680 |      0 |  23 |       0 |
   851 |NSTO0002|   1703 |      0 |  23 |       0 |
   852 |NEXC0002|   1726 |      0 |  23 |       0 |
   853 |PRNA0002|   1749 |      0 |  23 |       0 |
   854 |PDNA0002|   1772 |      0 |  23 |       0 |
   855 |PTHY0002|   1795 |      0 |  23 |       0 |
   856 |PCON0002|   1818 |      0 |  23 |       0 |
   857 |PSTO0002|   1841 |      0 |  23 |       0 |
   858 |PEXC0002|   1864 |      0 |  23 |       0 |
   859 |FPHO0002|   1887 |      0 |  23 |       0 |
   860 |FSTO0002|   1910 |      0 |  23 |       0 |
   861 |FEXC0002|   1933 |      0 |  23 |       0 |
  1115 |PC0002  |   1956 |      0 |  23 |       0 |
   838 |PChl0002|   1979 |      0 |  23 |       0 |
   839 |VN0002  |   2002 |      0 |  23 |       0 |
   840 |MODE0002|   2025 |      0 |  23 |       0 |
   841 |Fe_C0002|   2048 |      0 |  23 |       0 |
   842 |exQc0002|   2071 |      0 |  23 |       0 |
   843 |PCg0002 |   2094 |      0 |  23 |       0 |
------------------------------------------------------------------------
listId=    2 ; file name: GC
 nFlds, nActive,       freq     &     phase        , nLev               
   36  |   36  |      3600.000000         0.000000 |  23
 levels:   1   2   3   4   5   6   7   8   9  10  11  12  13  14  15  16  17  18  19  20  21  22  23
 diag# | name   |   ipt  |  iMate | kLev|   count |   mate.C|           
  1172 |GC_Tr01 |   2117 |      0 |  23 |       0 |
  1173 |GC_Tr02 |   2140 |      0 |  23 |       0 |
  1174 |GC_Tr03 |   2163 |      0 |  23 |       0 |
  1175 |GC_Tr04 |   2186 |      0 |  23 |       0 |
  1176 |GC_Tr05 |   2209 |      0 |  23 |       0 |
  1177 |GC_Tr06 |   2232 |      0 |  23 |       0 |
  1178 |GC_Tr07 |   2255 |      0 |  23 |       0 |
  1179 |GC_Tr08 |   2278 |      0 |  23 |       0 |
  1180 |GC_Tr09 |   2301 |      0 |  23 |       0 |
  1181 |GC_Tr10 |   2324 |      0 |  23 |       0 |
  1182 |GC_Tr11 |   2347 |      0 |  23 |       0 |
  1183 |GC_Tr12 |   2370 |      0 |  23 |       0 |
  1184 |GC_Tr13 |   2393 |      0 |  23 |       0 |
  1185 |GC_Tr14 |   2416 |      0 |  23 |       0 |
  1186 |GC_Tr15 |   2439 |      0 |  23 |       0 |
  1187 |GC_Tr16 |   2462 |      0 |  23 |       0 |
  1188 |GC_Tr17 |   2485 |      0 |  23 |       0 |
  1189 |GC_Tr18 |   2508 |      0 |  23 |       0 |
  1190 |GC_Tr19 |   2531 |      0 |  23 |       0 |
  1191 |GC_Tr20 |   2554 |      0 |  23 |       0 |
  1192 |GC_Tr21 |   2577 |      0 |  23 |       0 |
  1193 |GC_Tr22 |   2600 |      0 |  23 |       0 |
  1194 |GC_Tr23 |   2623 |      0 |  23 |       0 |
  1195 |GC_Tr24 |   2646 |      0 |  23 |       0 |
  1196 |GC_Tr25 |   2669 |      0 |  23 |       0 |
  1197 |GC_Tr26 |   2692 |      0 |  23 |       0 |
  1198 |GC_Tr27 |   2715 |      0 |  23 |       0 |
  1199 |GC_Tr28 |   2738 |      0 |  23 |       0 |
  1200 |GC_Tr29 |   2761 |      0 |  23 |       0 |
  1201 |GC_Tr30 |   2784 |      0 |  23 |       0 |
  1202 |GC_Tr31 |   2807 |      0 |  23 |       0 |
  1203 |GC_Tr32 |   2830 |      0 |  23 |       0 |
  1204 |GC_Tr33 |   2853 |      0 |  23 |       0 |
  1205 |GC_Tr34 |   2876 |      0 |  23 |       0 |
  1206 |GC_Tr35 |   2899 |      0 |  23 |       0 |
  1207 |GC_Tr36 |   2922 |      0 |  23 |       0 |
------------------------------------------------------------------------
listId=    3 ; file name: iops
 nFlds, nActive,       freq     &     phase        , nLev               
   52  |   52  |   2592000.000000         0.000000 |  23
 levels:   1   2   3   4   5   6   7   8   9  10  11  12  13  14  15  16  17  18  19  20  21  22  23
 diag# | name   |   ipt  |  iMate | kLev|   count |   mate.C|           
   864 |a001    |   2945 |      0 |  23 |       0 |
   876 |a002    |   2968 |      0 |  23 |       0 |
   888 |a003    |   2991 |      0 |  23 |       0 |
   900 |a004    |   3014 |      0 |  23 |       0 |
   912 |a005    |   3037 |      0 |  23 |       0 |
   924 |a006    |   3060 |      0 |  23 |       0 |
   936 |a007    |   3083 |      0 |  23 |       0 |
   948 |a008    |   3106 |      0 |  23 |       0 |
   960 |a009    |   3129 |      0 |  23 |       0 |
   972 |a010    |   3152 |      0 |  23 |       0 |
   984 |a011    |   3175 |      0 |  23 |       0 |
   996 |a012    |   3198 |      0 |  23 |       0 |
  1008 |a013    |   3221 |      0 |  23 |       0 |
   865 |bt001   |   3244 |      0 |  23 |       0 |
   877 |bt002   |   3267 |      0 |  23 |       0 |
   889 |bt003   |   3290 |      0 |  23 |       0 |
   901 |bt004   |   3313 |      0 |  23 |       0 |
   913 |bt005   |   3336 |      0 |  23 |       0 |
   925 |bt006   |   3359 |      0 |  23 |       0 |
   937 |bt007   |   3382 |      0 |  23 |       0 |
   949 |bt008   |   3405 |      0 |  23 |       0 |
   961 |bt009   |   3428 |      0 |  23 |       0 |
   973 |bt010   |   3451 |      0 |  23 |       0 |
   985 |bt011   |   3474 |      0 |  23 |       0 |
   997 |bt012   |   3497 |      0 |  23 |       0 |
  1009 |bt013   |   3520 |      0 |  23 |       0 |
   866 |bb001   |   3543 |      0 |  23 |       0 |
   878 |bb002   |   3566 |      0 |  23 |       0 |
   890 |bb003   |   3589 |      0 |  23 |       0 |
   902 |bb004   |   3612 |      0 |  23 |       0 |
   914 |bb005   |   3635 |      0 |  23 |       0 |
   938 |bb007   |   3658 |      0 |  23 |       0 |
   950 |bb008   |   3681 |      0 |  23 |       0 |
   962 |bb009   |   3704 |      0 |  23 |       0 |
   974 |bb010   |   3727 |      0 |  23 |       0 |
   986 |bb011   |   3750 |      0 |  23 |       0 |
   998 |bb012   |   3773 |      0 |  23 |       0 |
  1010 |bb013   |   3796 |      0 |  23 |       0 |
   873 |aCDOM001|   3819 |      0 |  23 |       0 |
   885 |aCDOM002|   3842 |      0 |  23 |       0 |
   897 |aCDOM003|   3865 |      0 |  23 |       0 |
   909 |aCDOM004|   3888 |      0 |  23 |       0 |
   921 |aCDOM005|   3911 |      0 |  23 |       0 |
   933 |aCDOM006|   3934 |      0 |  23 |       0 |
   945 |aCDOM007|   3957 |      0 |  23 |       0 |
   957 |aCDOM008|   3980 |      0 |  23 |       0 |
   969 |aCDOM009|   4003 |      0 |  23 |       0 |
   981 |aCDOM010|   4026 |      0 |  23 |       0 |
   993 |aCDOM011|   4049 |      0 |  23 |       0 |
  1005 |aCDOM012|   4072 |      0 |  23 |       0 |
  1017 |aCDOM013|   4095 |      0 |  23 |       0 |
   926 |bb006   |   4118 |      0 |  23 |       0 |
------------------------------------------------------------------------
listId=    4 ; file name: par
 nFlds, nActive,       freq     &     phase        , nLev               
   52  |   52  |   2592000.000000         0.000000 |  23
 levels:   1   2   3   4   5   6   7   8   9  10  11  12  13  14  15  16  17  18  19  20  21  22  23
 diag# | name   |   ipt  |  iMate | kLev|   count |   mate.C|           
   189 |Ed001   |   4141 |      0 |  23 |       0 |
   195 |Ed002   |   4164 |      0 |  23 |       0 |
   201 |Ed003   |   4187 |      0 |  23 |       0 |
   207 |Ed004   |   4210 |      0 |  23 |       0 |
   213 |Ed005   |   4233 |      0 |  23 |       0 |
   219 |Ed006   |   4256 |      0 |  23 |       0 |
   225 |Ed007   |   4279 |      0 |  23 |       0 |
   231 |Ed008   |   4302 |      0 |  23 |       0 |
   237 |Ed009   |   4325 |      0 |  23 |       0 |
   243 |Ed010   |   4348 |      0 |  23 |       0 |
   249 |Ed011   |   4371 |      0 |  23 |       0 |
   255 |Ed012   |   4394 |      0 |  23 |       0 |
   261 |Ed013   |   4417 |      0 |  23 |       0 |
   190 |Es001   |   4440 |      0 |  23 |       0 |
   196 |Es002   |   4463 |      0 |  23 |       0 |
   202 |Es003   |   4486 |      0 |  23 |       0 |
   208 |Es004   |   4509 |      0 |  23 |       0 |
   214 |Es005   |   4532 |      0 |  23 |       0 |
   220 |Es006   |   4555 |      0 |  23 |       0 |
   226 |Es007   |   4578 |      0 |  23 |       0 |
   232 |Es008   |   4601 |      0 |  23 |       0 |
   238 |Es009   |   4624 |      0 |  23 |       0 |
   244 |Es010   |   4647 |      0 |  23 |       0 |
   250 |Es011   |   4670 |      0 |  23 |       0 |
   256 |Es012   |   4693 |      0 |  23 |       0 |
   262 |Es013   |   4716 |      0 |  23 |       0 |
   191 |Eu001   |   4739 |      0 |  23 |       0 |
   197 |Eu002   |   4762 |      0 |  23 |       0 |
   203 |Eu003   |   4785 |      0 |  23 |       0 |
   209 |Eu004   |   4808 |      0 |  23 |       0 |
   215 |Eu005   |   4831 |      0 |  23 |       0 |
   221 |Eu006   |   4854 |      0 |  23 |       0 |
   227 |Eu007   |   4877 |      0 |  23 |       0 |
   233 |Eu008   |   4900 |      0 |  23 |       0 |
   239 |Eu009   |   4923 |      0 |  23 |       0 |
   245 |Eu010   |   4946 |      0 |  23 |       0 |
   251 |Eu011   |   4969 |      0 |  23 |       0 |
   257 |Eu012   |   4992 |      0 |  23 |       0 |
   263 |Eu013   |   5015 |      0 |  23 |       0 |
   862 |PAR001  |   5038 |      0 |  23 |       0 |
   874 |PAR002  |   5061 |      0 |  23 |       0 |
   886 |PAR003  |   5084 |      0 |  23 |       0 |
   898 |PAR004  |   5107 |      0 |  23 |       0 |
   910 |PAR005  |   5130 |      0 |  23 |       0 |
   922 |PAR006  |   5153 |      0 |  23 |       0 |
   934 |PAR007  |   5176 |      0 |  23 |       0 |
   946 |PAR008  |   5199 |      0 |  23 |       0 |
   958 |PAR009  |   5222 |      0 |  23 |       0 |
   970 |PAR010  |   5245 |      0 |  23 |       0 |
   982 |PAR011  |   5268 |      0 |  23 |       0 |
   994 |PAR012  |   5291 |      0 |  23 |       0 |
  1006 |PAR013  |   5314 |      0 |  23 |       0 |
------------------------------------------------------------------------
listId=    5 ; file name: 2d
 nFlds, nActive,       freq     &     phase        , nLev               
    4  |    4  |   2592000.000000         0.000000 |   1
 levels:   1
 diag# | name   |   ipt  |  iMate | kLev|   count |   mate.C|           
  1150 |fluxCO2 |   5337 |      0 |   1 |       0 |
  1154 |gDICsurf|   5338 |      0 |   1 |       0 |
  1155 |gALKsurf|   5339 |      0 |   1 |       0 |
  1156 |gO2surf |   5340 |      0 |   1 |       0 |
------------------------------------------------------------------------
Global & Regional Statistics diagnostics: Number of lists:     3
------------------------------------------------------------------------
listId=   1 ; file name: statsPP
 nFlds, nActive,       freq     &     phase        |                    
    1  |    1  |     10800.000000         0.000000 |
 Regions:   0
 diag# | name   |   ipt  |  iMate |    Volume   |   mate-Vol. |         
   810 |PP      |      1 |      0 | 0.00000E+00 |
------------------------------------------------------------------------
listId=   2 ; file name: statsNfix
 nFlds, nActive,       freq     &     phase        |                    
    1  |    1  |     10800.000000         0.000000 |
 Regions:   0
 diag# | name   |   ipt  |  iMate |    Volume   |   mate-Vol. |         
   811 |Nfix    |     24 |      0 | 0.00000E+00 |
------------------------------------------------------------------------
listId=   3 ; file name: statsDenit
 nFlds, nActive,       freq     &     phase        |                    
    1  |    1  |     10800.000000         0.000000 |
 Regions:   0
 diag# | name   |   ipt  |  iMate |    Volume   |   mate-Vol. |         
   812 |Denit   |     47 |      0 | 0.00000E+00 |
------------------------------------------------------------------------
 OFFLINE_FIELDS_LOAD, it=         0 : Reading new data, i0,i1=  360    1 (prev=  360    0 )
(PID.TID 0000.0001)  MDS_READ_FIELD: opening global file: ECCO_Iter3.73daily/DDuvel/DDuvel.0000087552.data
(PID.TID 0000.0001)  MDS_READ_FIELD: opening global file: ECCO_Iter3.73daily/DDuvel/DDuvel.0000078936.data
(PID.TID 0000.0001)  MDS_READ_FIELD: opening global file: ECCO_Iter3.73daily/DDvvel/DDvvel.0000087552.data
(PID.TID 0000.0001)  MDS_READ_FIELD: opening global file: ECCO_Iter3.73daily/DDvvel/DDvvel.0000078936.data
(PID.TID 0000.0001)  MDS_READ_FIELD: opening global file: ECCO_Iter3.73daily/DDwvel/DDwvel.0000087552.data
(PID.TID 0000.0001)  MDS_READ_FIELD: opening global file: ECCO_Iter3.73daily/DDwvel/DDwvel.0000078936.data
(PID.TID 0000.0001)  MDS_READ_FIELD: opening global file: ECCO_Iter3.73daily/DDtheta/DDtheta.0000087552.data
(PID.TID 0000.0001)  MDS_READ_FIELD: opening global file: ECCO_Iter3.73daily/DDtheta/DDtheta.0000078936.data
(PID.TID 0000.0001)  MDS_READ_FIELD: opening global file: ECCO_Iter3.73daily/DDsalt/DDsalt.0000087552.data
(PID.TID 0000.0001)  MDS_READ_FIELD: opening global file: ECCO_Iter3.73daily/DDsalt/DDsalt.0000078936.data
(PID.TID 0000.0001)  MDS_READ_FIELD: opening global file: ECCO_Iter3.73daily/DGMkwx/DGMkwx.0000087552.data
(PID.TID 0000.0001)  MDS_READ_FIELD: opening global file: ECCO_Iter3.73daily/DGMkwx/DGMkwx.0000078936.data
(PID.TID 0000.0001)  MDS_READ_FIELD: opening global file: ECCO_Iter3.73daily/DGMkwy/DGMkwy.0000087552.data
(PID.TID 0000.0001)  MDS_READ_FIELD: opening global file: ECCO_Iter3.73daily/DGMkwy/DGMkwy.0000078936.data
(PID.TID 0000.0001)  MDS_READ_FIELD: opening global file: ECCO_Iter3.73daily/DGMkwz/DGMkwz.0000087552.data
(PID.TID 0000.0001)  MDS_READ_FIELD: opening global file: ECCO_Iter3.73daily/DGMkwz/DGMkwz.0000078936.data
(PID.TID 0000.0001)  MDS_READ_FIELD: opening global file: ECCO_Iter3.73daily/DKPPdiffs/DKPPdiffs.0000087552.data
(PID.TID 0000.0001)  MDS_READ_FIELD: opening global file: ECCO_Iter3.73daily/DKPPdiffs/DKPPdiffs.0000078936.data
(PID.TID 0000.0001)  MDS_READ_FIELD: opening global file: ECCO_Iter3.73daily/DKPPghatK/DKPPghatK.0000087552.data
(PID.TID 0000.0001)  MDS_READ_FIELD: opening global file: ECCO_Iter3.73daily/DKPPghatK/DKPPghatK.0000078936.data
(PID.TID 0000.0001)  MDS_READ_FIELD: opening global file: ECCO_Iter3.73daily/DFOSflux/DFOSflux.0000087552.data
(PID.TID 0000.0001)  MDS_READ_FIELD: opening global file: ECCO_Iter3.73daily/DFOSflux/DFOSflux.0000078936.data
(PID.TID 0000.0001)  MDS_READ_FIELD: opening global file: input_ecco/glodap_tco2_ann-3d.bin
(PID.TID 0000.0001)  MDS_READ_FIELD: opening global file: input_ecco/lev01_nitrate_ann-3d.bin
(PID.TID 0000.0001)  MDS_READ_FIELD: opening global file: DARWIN_ECCO_run17/no2_y2000.data
(PID.TID 0000.0001)  MDS_READ_FIELD: opening global file: DARWIN_ECCO_run17/nh4_y2000.data
(PID.TID 0000.0001)  MDS_READ_FIELD: opening global file: input_ecco/lev01_phosphate_ann-3d.bin
(PID.TID 0000.0001)  MDS_READ_FIELD: opening global file: DARWIN_ECCO_run17/fet_y2000.data
(PID.TID 0000.0001)  MDS_READ_FIELD: opening global file: input_ecco/lev01_silicate_ann-3d.bin
(PID.TID 0000.0001)  MDS_READ_FIELD: opening global file: DARWIN_ECCO_run17/doc_y2000.data
(PID.TID 0000.0001)  MDS_READ_FIELD: opening global file: DARWIN_ECCO_run17/don_y2000.data
(PID.TID 0000.0001)  MDS_READ_FIELD: opening global file: DARWIN_ECCO_run17/dop_y2000.data
(PID.TID 0000.0001)  MDS_READ_FIELD: opening global file: DARWIN_ECCO_run17/dofe_y2000.data
(PID.TID 0000.0001)  MDS_READ_FIELD: opening global file: DARWIN_ECCO_run17/poc_y2000.data
(PID.TID 0000.0001)  MDS_READ_FIELD: opening global file: DARWIN_ECCO_run17/pon_y2000.data
(PID.TID 0000.0001)  MDS_READ_FIELD: opening global file: DARWIN_ECCO_run17/pop_y2000.data
(PID.TID 0000.0001)  MDS_READ_FIELD: opening global file: DARWIN_ECCO_run17/pofe_y2000.data
(PID.TID 0000.0001)  MDS_READ_FIELD: opening global file: DARWIN_ECCO_run17/posi_y2000.data
(PID.TID 0000.0001)  MDS_READ_FIELD: opening global file: DARWIN_ECCO_run17/pic_y2000.data
(PID.TID 0000.0001)  MDS_READ_FIELD: opening global file: input_ecco/glodap_alk_ann-3d.bin
(PID.TID 0000.0001)  MDS_READ_FIELD: opening global file: input_ecco/lev01_oxygen_ann-3d.bin
(PID.TID 0000.0001)  MDS_READ_FIELD: opening global file: input_ecco/CDOM_run129abb4.bin
(PID.TID 0000.0001)  MDS_READ_FIELD: opening global file: DARWIN_ECCO_run17/phy_6species_y2000.data
(PID.TID 0000.0001)  MDS_READ_FIELD: opening global file: DARWIN_ECCO_run17/phy_6species_y2000.data
(PID.TID 0000.0001)  MDS_READ_FIELD: opening global file: DARWIN_ECCO_run17/phy_6species_y2000.data
(PID.TID 0000.0001)  MDS_READ_FIELD: opening global file: DARWIN_ECCO_run17/phy_6species_y2000.data
(PID.TID 0000.0001)  MDS_READ_FIELD: opening global file: DARWIN_ECCO_run17/phy_6speciesn_y2000.data
(PID.TID 0000.0001)  MDS_READ_FIELD: opening global file: DARWIN_ECCO_run17/phy_6speciesn_y2000.data
(PID.TID 0000.0001)  MDS_READ_FIELD: opening global file: DARWIN_ECCO_run17/phy_6speciesn_y2000.data
(PID.TID 0000.0001)  MDS_READ_FIELD: opening global file: DARWIN_ECCO_run17/phy_6speciesn_y2000.data
(PID.TID 0000.0001)  MDS_READ_FIELD: opening global file: DARWIN_ECCO_run17/phy_6speciesp_y2000.data
(PID.TID 0000.0001)  MDS_READ_FIELD: opening global file: DARWIN_ECCO_run17/phy_6speciesp_y2000.data
(PID.TID 0000.0001)  MDS_READ_FIELD: opening global file: DARWIN_ECCO_run17/phy_6speciesp_y2000.data
(PID.TID 0000.0001)  MDS_READ_FIELD: opening global file: DARWIN_ECCO_run17/phy_6speciesp_y2000.data
(PID.TID 0000.0001)  MDS_READ_FIELD: opening global file: DARWIN_ECCO_run17/phy_6speciesfe_y2000.data
(PID.TID 0000.0001)  MDS_READ_FIELD: opening global file: DARWIN_ECCO_run17/phy_6speciesfe_y2000.data
(PID.TID 0000.0001)  MDS_READ_FIELD: opening global file: DARWIN_ECCO_run17/phy_6speciesfe_y2000.data
(PID.TID 0000.0001)  MDS_READ_FIELD: opening global file: DARWIN_ECCO_run17/phy_6speciesfe_y2000.data
(PID.TID 0000.0001)  MDS_READ_META: opening file: pickup_ptracers.darwin.meta
(PID.TID 0000.0001)  nRecords =  36 ; filePrec =  64 ; fileIter =     25920
(PID.TID 0000.0001)     nDims =   3 , dims:
(PID.TID 0000.0001)    1: 360   1 360
(PID.TID 0000.0001)    2: 160   1 160
(PID.TID 0000.0001)    3:  23   1  23
(PID.TID 0000.0001)     nFlds =  36 , nFl3D =   0 , fields:
(PID.TID 0000.0001)  >pTr01   < >pTr02   < >pTr03   < >pTr04   < >pTr05   < >pTr06   < >pTr07   < >pTr08   < >pTr09   < >pTr10   < >pTr11   < >pTr12   < >pTr13   < >pTr14   < >pTr15   < >pTr16   < >pTr17   < >pTr18   < >pTr19   < >pTr20   <
(PID.TID 0000.0001)  >pTr21   < >pTr22   < >pTr23   < >pTr24   < >pTr25   < >pTr26   < >pTr27   < >pTr28   < >pTr29   < >pTr30   < >pTr31   < >pTr32   < >pTr33   < >pTr34   < >pTr35   < >pTr36   <
(PID.TID 0000.0001) missingVal=  1.00000000000000E+00 ; nTimRec =   1 , timeList:
(PID.TID 0000.0001)   9.331200000000E+07
(PID.TID 0000.0001) READ_MFLDS_3D_RL: read field: "pTr01   ", #   1 in fldList, rec=   1
(PID.TID 0000.0001)  MDS_READ_FIELD: opening global file: pickup_ptracers.darwin.data
(PID.TID 0000.0001) READ_MFLDS_3D_RL: read field: "pTr02   ", #   2 in fldList, rec=   2
(PID.TID 0000.0001)  MDS_READ_FIELD: opening global file: pickup_ptracers.darwin.data
(PID.TID 0000.0001) READ_MFLDS_3D_RL: read field: "pTr03   ", #   3 in fldList, rec=   3
(PID.TID 0000.0001)  MDS_READ_FIELD: opening global file: pickup_ptracers.darwin.data
(PID.TID 0000.0001) READ_MFLDS_3D_RL: read field: "pTr04   ", #   4 in fldList, rec=   4
(PID.TID 0000.0001)  MDS_READ_FIELD: opening global file: pickup_ptracers.darwin.data
(PID.TID 0000.0001) READ_MFLDS_3D_RL: read field: "pTr05   ", #   5 in fldList, rec=   5
(PID.TID 0000.0001)  MDS_READ_FIELD: opening global file: pickup_ptracers.darwin.data
(PID.TID 0000.0001) READ_MFLDS_3D_RL: read field: "pTr06   ", #   6 in fldList, rec=   6
(PID.TID 0000.0001)  MDS_READ_FIELD: opening global file: pickup_ptracers.darwin.data
(PID.TID 0000.0001) READ_MFLDS_3D_RL: read field: "pTr07   ", #   7 in fldList, rec=   7
(PID.TID 0000.0001)  MDS_READ_FIELD: opening global file: pickup_ptracers.darwin.data
(PID.TID 0000.0001) READ_MFLDS_3D_RL: read field: "pTr08   ", #   8 in fldList, rec=   8
(PID.TID 0000.0001)  MDS_READ_FIELD: opening global file: pickup_ptracers.darwin.data
(PID.TID 0000.0001) READ_MFLDS_3D_RL: read field: "pTr09   ", #   9 in fldList, rec=   9
(PID.TID 0000.0001)  MDS_READ_FIELD: opening global file: pickup_ptracers.darwin.data
(PID.TID 0000.0001) READ_MFLDS_3D_RL: read field: "pTr10   ", #  10 in fldList, rec=  10
(PID.TID 0000.0001)  MDS_READ_FIELD: opening global file: pickup_ptracers.darwin.data
(PID.TID 0000.0001) READ_MFLDS_3D_RL: read field: "pTr11   ", #  11 in fldList, rec=  11
(PID.TID 0000.0001)  MDS_READ_FIELD: opening global file: pickup_ptracers.darwin.data
(PID.TID 0000.0001) READ_MFLDS_3D_RL: read field: "pTr12   ", #  12 in fldList, rec=  12
(PID.TID 0000.0001)  MDS_READ_FIELD: opening global file: pickup_ptracers.darwin.data
(PID.TID 0000.0001) READ_MFLDS_3D_RL: read field: "pTr13   ", #  13 in fldList, rec=  13
(PID.TID 0000.0001)  MDS_READ_FIELD: opening global file: pickup_ptracers.darwin.data
(PID.TID 0000.0001) READ_MFLDS_3D_RL: read field: "pTr14   ", #  14 in fldList, rec=  14
(PID.TID 0000.0001)  MDS_READ_FIELD: opening global file: pickup_ptracers.darwin.data
(PID.TID 0000.0001) READ_MFLDS_3D_RL: read field: "pTr15   ", #  15 in fldList, rec=  15
(PID.TID 0000.0001)  MDS_READ_FIELD: opening global file: pickup_ptracers.darwin.data
(PID.TID 0000.0001) READ_MFLDS_3D_RL: read field: "pTr16   ", #  16 in fldList, rec=  16
(PID.TID 0000.0001)  MDS_READ_FIELD: opening global file: pickup_ptracers.darwin.data
(PID.TID 0000.0001) READ_MFLDS_3D_RL: read field: "pTr17   ", #  17 in fldList, rec=  17
(PID.TID 0000.0001)  MDS_READ_FIELD: opening global file: pickup_ptracers.darwin.data
(PID.TID 0000.0001) READ_MFLDS_3D_RL: read field: "pTr18   ", #  18 in fldList, rec=  18
(PID.TID 0000.0001)  MDS_READ_FIELD: opening global file: pickup_ptracers.darwin.data
(PID.TID 0000.0001) READ_MFLDS_3D_RL: read field: "pTr19   ", #  19 in fldList, rec=  19
(PID.TID 0000.0001)  MDS_READ_FIELD: opening global file: pickup_ptracers.darwin.data
(PID.TID 0000.0001) READ_MFLDS_3D_RL: read field: "pTr20   ", #  20 in fldList, rec=  20
(PID.TID 0000.0001)  MDS_READ_FIELD: opening global file: pickup_ptracers.darwin.data
(PID.TID 0000.0001) READ_MFLDS_3D_RL: read field: "pTr21   ", #  21 in fldList, rec=  21
(PID.TID 0000.0001)  MDS_READ_FIELD: opening global file: pickup_ptracers.darwin.data
(PID.TID 0000.0001) READ_MFLDS_3D_RL: read field: "pTr22   ", #  22 in fldList, rec=  22
(PID.TID 0000.0001)  MDS_READ_FIELD: opening global file: pickup_ptracers.darwin.data
(PID.TID 0000.0001) READ_MFLDS_3D_RL: read field: "pTr23   ", #  23 in fldList, rec=  23
(PID.TID 0000.0001)  MDS_READ_FIELD: opening global file: pickup_ptracers.darwin.data
(PID.TID 0000.0001) READ_MFLDS_3D_RL: read field: "pTr24   ", #  24 in fldList, rec=  24
(PID.TID 0000.0001)  MDS_READ_FIELD: opening global file: pickup_ptracers.darwin.data
(PID.TID 0000.0001) READ_MFLDS_3D_RL: read field: "pTr25   ", #  25 in fldList, rec=  25
(PID.TID 0000.0001)  MDS_READ_FIELD: opening global file: pickup_ptracers.darwin.data
(PID.TID 0000.0001) READ_MFLDS_3D_RL: read field: "pTr26   ", #  26 in fldList, rec=  26
(PID.TID 0000.0001)  MDS_READ_FIELD: opening global file: pickup_ptracers.darwin.data
(PID.TID 0000.0001) READ_MFLDS_3D_RL: read field: "pTr27   ", #  27 in fldList, rec=  27
(PID.TID 0000.0001)  MDS_READ_FIELD: opening global file: pickup_ptracers.darwin.data
(PID.TID 0000.0001) READ_MFLDS_3D_RL: read field: "pTr28   ", #  28 in fldList, rec=  28
(PID.TID 0000.0001)  MDS_READ_FIELD: opening global file: pickup_ptracers.darwin.data
(PID.TID 0000.0001) READ_MFLDS_3D_RL: read field: "pTr29   ", #  29 in fldList, rec=  29
(PID.TID 0000.0001)  MDS_READ_FIELD: opening global file: pickup_ptracers.darwin.data
(PID.TID 0000.0001) READ_MFLDS_3D_RL: read field: "pTr30   ", #  30 in fldList, rec=  30
(PID.TID 0000.0001)  MDS_READ_FIELD: opening global file: pickup_ptracers.darwin.data
(PID.TID 0000.0001) READ_MFLDS_3D_RL: read field: "pTr31   ", #  31 in fldList, rec=  31
(PID.TID 0000.0001)  MDS_READ_FIELD: opening global file: pickup_ptracers.darwin.data
(PID.TID 0000.0001) READ_MFLDS_3D_RL: read field: "pTr32   ", #  32 in fldList, rec=  32
(PID.TID 0000.0001)  MDS_READ_FIELD: opening global file: pickup_ptracers.darwin.data
(PID.TID 0000.0001) READ_MFLDS_3D_RL: read field: "pTr33   ", #  33 in fldList, rec=  33
(PID.TID 0000.0001)  MDS_READ_FIELD: opening global file: pickup_ptracers.darwin.data
(PID.TID 0000.0001) READ_MFLDS_3D_RL: read field: "pTr34   ", #  34 in fldList, rec=  34
(PID.TID 0000.0001)  MDS_READ_FIELD: opening global file: pickup_ptracers.darwin.data
(PID.TID 0000.0001) READ_MFLDS_3D_RL: read field: "pTr35   ", #  35 in fldList, rec=  35
(PID.TID 0000.0001)  MDS_READ_FIELD: opening global file: pickup_ptracers.darwin.data
(PID.TID 0000.0001) READ_MFLDS_3D_RL: read field: "pTr36   ", #  36 in fldList, rec=  36
(PID.TID 0000.0001)  MDS_READ_FIELD: opening global file: pickup_ptracers.darwin.data
(PID.TID 0000.0001) READ_MFLDS_CHECK: - normal end ; reset MFLDS file-name: pickup_ptracers.darwin
(PID.TID 0000.0001)  MDS_READ_META: opening file: pickup_darwin.darwin.meta
(PID.TID 0000.0001)  nRecords =   3 ; filePrec =  64 ; fileIter =     25920
(PID.TID 0000.0001)     nDims =   3 , dims:
(PID.TID 0000.0001)    1: 360   1 360
(PID.TID 0000.0001)    2: 160   1 160
(PID.TID 0000.0001)    3:  23   1  23
(PID.TID 0000.0001)     nFlds =   3 , nFl3D =   0 , fields:
(PID.TID 0000.0001)  >pH      < >ChlPhy01< >ChlPhy02<
(PID.TID 0000.0001) missingVal=  1.00000000000000E+00 ; nTimRec =   1 , timeList:
(PID.TID 0000.0001)   9.331200000000E+07
(PID.TID 0000.0001) READ_MFLDS_3D_RL: read field: "pH      ", #   1 in fldList, rec=   1
(PID.TID 0000.0001)  MDS_READ_FIELD: opening global file: pickup_darwin.darwin.data
(PID.TID 0000.0001) READ_MFLDS_3D_RL: read field: "ChlPhy01", #   2 in fldList, rec=   2
(PID.TID 0000.0001)  MDS_READ_FIELD: opening global file: pickup_darwin.darwin.data
(PID.TID 0000.0001) READ_MFLDS_3D_RL: read field: "ChlPhy02", #   3 in fldList, rec=   3
(PID.TID 0000.0001)  MDS_READ_FIELD: opening global file: pickup_darwin.darwin.data
(PID.TID 0000.0001) READ_MFLDS_CHECK: - normal end ; reset MFLDS file-name: pickup_darwin.darwin
(PID.TID 0000.0001) // =======================================================
(PID.TID 0000.0001) // Model current state
(PID.TID 0000.0001) // =======================================================
(PID.TID 0000.0001) 
(PID.TID 0000.0001) // =======================================================
(PID.TID 0000.0001) // Begin MONITOR dynamic field statistics
(PID.TID 0000.0001) // =======================================================
(PID.TID 0000.0001) %MON time_tsnumber                =                     0
(PID.TID 0000.0001) %MON time_secondsf                =   0.0000000000000E+00
(PID.TID 0000.0001) %MON dynstat_eta_max              =   0.0000000000000E+00
(PID.TID 0000.0001) %MON dynstat_eta_min              =   0.0000000000000E+00
(PID.TID 0000.0001) %MON dynstat_eta_mean             =   0.0000000000000E+00
(PID.TID 0000.0001) %MON dynstat_eta_sd               =   0.0000000000000E+00
(PID.TID 0000.0001) %MON dynstat_eta_del2             =   0.0000000000000E+00
(PID.TID 0000.0001) %MON dynstat_uvel_max             =   7.5098115205765E-01
(PID.TID 0000.0001) %MON dynstat_uvel_min             =  -8.5988894104958E-01
(PID.TID 0000.0001) %MON dynstat_uvel_mean            =   2.3572816524444E-03
(PID.TID 0000.0001) %MON dynstat_uvel_sd              =   2.2920832952052E-02
(PID.TID 0000.0001) %MON dynstat_uvel_del2            =   2.5380623508417E-05
(PID.TID 0000.0001) %MON dynstat_vvel_max             =   1.4433979988098E+00
(PID.TID 0000.0001) %MON dynstat_vvel_min             =  -7.9056510329247E-01
(PID.TID 0000.0001) %MON dynstat_vvel_mean            =  -1.9003223157285E-05
(PID.TID 0000.0001) %MON dynstat_vvel_sd              =   1.1606396696780E-02
(PID.TID 0000.0001) %MON dynstat_vvel_del2            =   2.3903080664410E-05
(PID.TID 0000.0001) %MON dynstat_wvel_max             =   4.0098185531362E-04
(PID.TID 0000.0001) %MON dynstat_wvel_min             =  -6.1701978098626E-04
(PID.TID 0000.0001) %MON dynstat_wvel_mean            =   8.7211442136304E-23
(PID.TID 0000.0001) %MON dynstat_wvel_sd              =   1.0036396664253E-05
(PID.TID 0000.0001) %MON dynstat_wvel_del2            =   1.8497991102997E-08
(PID.TID 0000.0001) %MON dynstat_theta_max            =   3.1759957313538E+01
(PID.TID 0000.0001) %MON dynstat_theta_min            =  -2.6781991720200E+00
(PID.TID 0000.0001) %MON dynstat_theta_mean           =   3.6072900423543E+00
(PID.TID 0000.0001) %MON dynstat_theta_sd             =   4.4541205956314E+00
(PID.TID 0000.0001) %MON dynstat_theta_del2           =   3.5727313459859E-04
(PID.TID 0000.0001) %MON dynstat_salt_max             =   3.9536773681641E+01
(PID.TID 0000.0001) %MON dynstat_salt_min             =   2.6413101196289E+01
(PID.TID 0000.0001) %MON dynstat_salt_mean            =   3.4722225910308E+01
(PID.TID 0000.0001) %MON dynstat_salt_sd              =   3.6521486169890E-01
(PID.TID 0000.0001) %MON dynstat_salt_del2            =   6.8647712204606E-05
(PID.TID 0000.0001) %MON dynstat_sst_max              =   3.1759957313538E+01
(PID.TID 0000.0001) %MON dynstat_sst_min              =  -1.9927841424942E+00
(PID.TID 0000.0001) %MON dynstat_sst_mean             =   1.9180627039434E+01
(PID.TID 0000.0001) %MON dynstat_sst_sd               =   9.5507126256379E+00
(PID.TID 0000.0001) %MON dynstat_sst_del2             =   2.1359256876323E-03
(PID.TID 0000.0001) %MON dynstat_sss_max              =   3.9536773681641E+01
(PID.TID 0000.0001) %MON dynstat_sss_min              =   2.6413101196289E+01
(PID.TID 0000.0001) %MON dynstat_sss_mean             =   3.4862233940638E+01
(PID.TID 0000.0001) %MON dynstat_sss_sd               =   1.0826450093342E+00
(PID.TID 0000.0001) %MON dynstat_sss_del2             =   5.9710833084477E-04
(PID.TID 0000.0001) %MON forcing_qnet_max             =   0.0000000000000E+00
(PID.TID 0000.0001) %MON forcing_qnet_min             =   0.0000000000000E+00
(PID.TID 0000.0001) %MON forcing_qnet_mean            =   0.0000000000000E+00
(PID.TID 0000.0001) %MON forcing_qnet_sd              =   0.0000000000000E+00
(PID.TID 0000.0001) %MON forcing_qnet_del2            =   0.0000000000000E+00
(PID.TID 0000.0001) %MON forcing_qsw_max              =   0.0000000000000E+00
(PID.TID 0000.0001) %MON forcing_qsw_min              =   0.0000000000000E+00
(PID.TID 0000.0001) %MON forcing_qsw_mean             =   0.0000000000000E+00
(PID.TID 0000.0001) %MON forcing_qsw_sd               =   0.0000000000000E+00
(PID.TID 0000.0001) %MON forcing_qsw_del2             =   0.0000000000000E+00
(PID.TID 0000.0001) %MON forcing_empmr_max            =   0.0000000000000E+00
(PID.TID 0000.0001) %MON forcing_empmr_min            =   0.0000000000000E+00
(PID.TID 0000.0001) %MON forcing_empmr_mean           =   0.0000000000000E+00
(PID.TID 0000.0001) %MON forcing_empmr_sd             =   0.0000000000000E+00
(PID.TID 0000.0001) %MON forcing_empmr_del2           =   0.0000000000000E+00
(PID.TID 0000.0001) %MON forcing_fu_max               =   0.0000000000000E+00
(PID.TID 0000.0001) %MON forcing_fu_min               =   0.0000000000000E+00
(PID.TID 0000.0001) %MON forcing_fu_mean              =   0.0000000000000E+00
(PID.TID 0000.0001) %MON forcing_fu_sd                =   0.0000000000000E+00
(PID.TID 0000.0001) %MON forcing_fu_del2              =   0.0000000000000E+00
(PID.TID 0000.0001) %MON forcing_fv_max               =   0.0000000000000E+00
(PID.TID 0000.0001) %MON forcing_fv_min               =   0.0000000000000E+00
(PID.TID 0000.0001) %MON forcing_fv_mean              =   0.0000000000000E+00
(PID.TID 0000.0001) %MON forcing_fv_sd                =   0.0000000000000E+00
(PID.TID 0000.0001) %MON forcing_fv_del2              =   0.0000000000000E+00
(PID.TID 0000.0001) %MON trAdv_CFL_u_max              =   0.0000000000000E+00
(PID.TID 0000.0001) %MON trAdv_CFL_v_max              =   0.0000000000000E+00
(PID.TID 0000.0001) %MON trAdv_CFL_w_max              =   0.0000000000000E+00
(PID.TID 0000.0001) %MON advcfl_uvel_max              =   4.6976435003085E-02
(PID.TID 0000.0001) %MON advcfl_vvel_max              =   4.6738180307999E-02
(PID.TID 0000.0001) %MON advcfl_wvel_max              =   6.4157096850180E-02
(PID.TID 0000.0001) %MON advcfl_W_hf_max              =   7.2176733956452E-02
(PID.TID 0000.0001) %MON pe_b_mean                    =   0.0000000000000E+00
(PID.TID 0000.0001) %MON ke_max                       =   8.2762730601179E-01
(PID.TID 0000.0001) %MON ke_mean                      =   3.1922519158178E-04
(PID.TID 0000.0001) %MON ke_vol                       =   1.3258927395736E+18
(PID.TID 0000.0001) %MON vort_r_min                   =  -1.4668072202508E-05
(PID.TID 0000.0001) %MON vort_r_max                   =   2.0065492707289E-05
(PID.TID 0000.0001) %MON vort_a_mean                  =  -2.1443554588588E-05
(PID.TID 0000.0001) %MON vort_a_sd                    =   7.3250404447070E-05
(PID.TID 0000.0001) %MON vort_p_mean                  =  -2.3136237641927E-05
(PID.TID 0000.0001) %MON vort_p_sd                    =   8.5528229257189E-05
(PID.TID 0000.0001) %MON surfExpan_theta_mean         =  -2.8535364658049E-08
(PID.TID 0000.0001) %MON surfExpan_salt_mean          =   6.2495878354357E-09
(PID.TID 0000.0001) // =======================================================
(PID.TID 0000.0001) // End MONITOR dynamic field statistics
(PID.TID 0000.0001) // =======================================================
(PID.TID 0000.0001) // =======================================================
(PID.TID 0000.0001) // Begin MONITOR ptracer field statistics
(PID.TID 0000.0001) // =======================================================
(PID.TID 0000.0001) %MON trcstat_ptracer01_max        =   2.4112468715380E+03
(PID.TID 0000.0001) %MON trcstat_ptracer01_min        =   1.7240740488801E+03
(PID.TID 0000.0001) %MON trcstat_ptracer01_mean       =   2.2529010044941E+03
(PID.TID 0000.0001) %MON trcstat_ptracer01_sd         =   8.1238668228370E+01
(PID.TID 0000.0001) %MON trcstat_ptracer01_del2       =   8.0143097491793E-03
(PID.TID 0000.0001) %MON trcstat_ptracer02_max        =   4.4817982939085E+01
(PID.TID 0000.0001) %MON trcstat_ptracer02_min        =  -1.6029599002525E-01
(PID.TID 0000.0001) %MON trcstat_ptracer02_mean       =   3.0672972335335E+01
(PID.TID 0000.0001) %MON trcstat_ptracer02_sd         =   9.1048615652187E+00
(PID.TID 0000.0001) %MON trcstat_ptracer02_del2       =   7.0003851996821E-04
(PID.TID 0000.0001) %MON trcstat_ptracer03_max        =   8.5879170888102E+00
(PID.TID 0000.0001) %MON trcstat_ptracer03_min        =  -4.7445410264206E-10
(PID.TID 0000.0001) %MON trcstat_ptracer03_mean       =   2.0001168832240E-02
(PID.TID 0000.0001) %MON trcstat_ptracer03_sd         =   1.4854800991209E-01
(PID.TID 0000.0001) %MON trcstat_ptracer03_del2       =   2.0563869166901E-04
(PID.TID 0000.0001) %MON trcstat_ptracer04_max        =   1.3280853004069E+01
(PID.TID 0000.0001) %MON trcstat_ptracer04_min        =  -1.2578156518738E-07
(PID.TID 0000.0001) %MON trcstat_ptracer04_mean       =   7.3502550444625E-02
(PID.TID 0000.0001) %MON trcstat_ptracer04_sd         =   5.8115397438086E-01
(PID.TID 0000.0001) %MON trcstat_ptracer04_del2       =   3.0264475439892E-04
(PID.TID 0000.0001) %MON trcstat_ptracer05_max        =   3.5973358741092E+00
(PID.TID 0000.0001) %MON trcstat_ptracer05_min        =   8.4468196096127E-02
(PID.TID 0000.0001) %MON trcstat_ptracer05_mean       =   2.1791673102664E+00
(PID.TID 0000.0001) %MON trcstat_ptracer05_sd         =   6.1922585800666E-01
(PID.TID 0000.0001) %MON trcstat_ptracer05_del2       =   3.7758670461561E-05
(PID.TID 0000.0001) %MON trcstat_ptracer06_max        =   1.0803089619308E-03
(PID.TID 0000.0001) %MON trcstat_ptracer06_min        =  -6.4117611464116E-05
(PID.TID 0000.0001) %MON trcstat_ptracer06_mean       =   6.2712732231114E-04
(PID.TID 0000.0001) %MON trcstat_ptracer06_sd         =   1.9398352480004E-04
(PID.TID 0000.0001) %MON trcstat_ptracer06_del2       =   8.1009771845437E-08
(PID.TID 0000.0001) %MON trcstat_ptracer07_max        =   2.7520681589400E+02
(PID.TID 0000.0001) %MON trcstat_ptracer07_min        =   1.1356889369832E+00
(PID.TID 0000.0001) %MON trcstat_ptracer07_mean       =   9.0930630693433E+01
(PID.TID 0000.0001) %MON trcstat_ptracer07_sd         =   5.1624275069638E+01
(PID.TID 0000.0001) %MON trcstat_ptracer07_del2       =   1.3846326134379E-03
(PID.TID 0000.0001) %MON trcstat_ptracer08_max        =   2.7664368163937E+02
(PID.TID 0000.0001) %MON trcstat_ptracer08_min        =   3.0029475045795E-08
(PID.TID 0000.0001) %MON trcstat_ptracer08_mean       =   1.5342039833585E-01
(PID.TID 0000.0001) %MON trcstat_ptracer08_sd         =   1.0124677712704E+00
(PID.TID 0000.0001) %MON trcstat_ptracer08_del2       =   1.1449022517301E-03
(PID.TID 0000.0001) %MON trcstat_ptracer09_max        =   3.9126317081095E+01
(PID.TID 0000.0001) %MON trcstat_ptracer09_min        =   5.8326080923997E-10
(PID.TID 0000.0001) %MON trcstat_ptracer09_mean       =   1.8940661718029E-02
(PID.TID 0000.0001) %MON trcstat_ptracer09_sd         =   1.1657867290766E-01
(PID.TID 0000.0001) %MON trcstat_ptracer09_del2       =   9.4915324412111E-05
(PID.TID 0000.0001) %MON trcstat_ptracer10_max        =   2.3054272451212E+00
(PID.TID 0000.0001) %MON trcstat_ptracer10_min        =  -1.2178941312121E-09
(PID.TID 0000.0001) %MON trcstat_ptracer10_mean       =   2.0655390046676E-04
(PID.TID 0000.0001) %MON trcstat_ptracer10_sd         =   3.5921119367173E-03
(PID.TID 0000.0001) %MON trcstat_ptracer10_del2       =   1.0170249590595E-06
(PID.TID 0000.0001) %MON trcstat_ptracer11_max        =   7.0686820681957E-03
(PID.TID 0000.0001) %MON trcstat_ptracer11_min        =   2.1770539028999E-13
(PID.TID 0000.0001) %MON trcstat_ptracer11_mean       =   8.9863911197108E-06
(PID.TID 0000.0001) %MON trcstat_ptracer11_sd         =   4.4056155848902E-05
(PID.TID 0000.0001) %MON trcstat_ptracer11_del2       =   4.3294980569972E-08
(PID.TID 0000.0001) %MON trcstat_ptracer12_max        =   1.0477736097683E+03
(PID.TID 0000.0001) %MON trcstat_ptracer12_min        =   2.6993273274483E-09
(PID.TID 0000.0001) %MON trcstat_ptracer12_mean       =   2.3783510977775E-02
(PID.TID 0000.0001) %MON trcstat_ptracer12_sd         =   1.6018811639481E+00
(PID.TID 0000.0001) %MON trcstat_ptracer12_del2       =   1.2345776841154E-04
(PID.TID 0000.0001) %MON trcstat_ptracer13_max        =   1.4830083763734E+02
(PID.TID 0000.0001) %MON trcstat_ptracer13_min        =   1.7593050729136E-10
(PID.TID 0000.0001) %MON trcstat_ptracer13_mean       =   3.0619874244299E-03
(PID.TID 0000.0001) %MON trcstat_ptracer13_sd         =   2.2787847303622E-01
(PID.TID 0000.0001) %MON trcstat_ptracer13_del2       =   1.4820500835754E-05
(PID.TID 0000.0001) %MON trcstat_ptracer14_max        =   8.5846861354985E+00
(PID.TID 0000.0001) %MON trcstat_ptracer14_min        =   2.8420423550695E-12
(PID.TID 0000.0001) %MON trcstat_ptracer14_mean       =   5.7184701840717E-05
(PID.TID 0000.0001) %MON trcstat_ptracer14_sd         =   1.2929233670485E-02
(PID.TID 0000.0001) %MON trcstat_ptracer14_del2       =   1.9280850981459E-07
(PID.TID 0000.0001) %MON trcstat_ptracer15_max        =   1.0526868704814E-02
(PID.TID 0000.0001) %MON trcstat_ptracer15_min        =  -1.0603364342573E-12
(PID.TID 0000.0001) %MON trcstat_ptracer15_mean       =   1.2262423409207E-06
(PID.TID 0000.0001) %MON trcstat_ptracer15_sd         =   1.8503356069967E-05
(PID.TID 0000.0001) %MON trcstat_ptracer15_del2       =   7.7820649446406E-09
(PID.TID 0000.0001) %MON trcstat_ptracer16_max        =   2.5129310391345E+01
(PID.TID 0000.0001) %MON trcstat_ptracer16_min        =  -1.7871618449366E-07
(PID.TID 0000.0001) %MON trcstat_ptracer16_mean       =   1.4890146030755E-02
(PID.TID 0000.0001) %MON trcstat_ptracer16_sd         =   1.1614049737800E-01
(PID.TID 0000.0001) %MON trcstat_ptracer16_del2       =   1.0102989773479E-05
(PID.TID 0000.0001) %MON trcstat_ptracer17_max        =   1.6452903900633E+01
(PID.TID 0000.0001) %MON trcstat_ptracer17_min        =  -5.7823891586816E-08
(PID.TID 0000.0001) %MON trcstat_ptracer17_mean       =   6.2403324196961E-03
(PID.TID 0000.0001) %MON trcstat_ptracer17_sd         =   5.6846638246008E-02
(PID.TID 0000.0001) %MON trcstat_ptracer17_del2       =   1.3470299264614E-05
(PID.TID 0000.0001) %MON trcstat_ptracer18_max        =   2.5679957476290E+03
(PID.TID 0000.0001) %MON trcstat_ptracer18_min        =   2.0130615497418E+03
(PID.TID 0000.0001) %MON trcstat_ptracer18_mean       =   2.3641769172716E+03
(PID.TID 0000.0001) %MON trcstat_ptracer18_sd         =   4.2025420612905E+01
(PID.TID 0000.0001) %MON trcstat_ptracer18_del2       =   4.8594509912399E-03
(PID.TID 0000.0001) %MON trcstat_ptracer19_max        =   3.8544860780505E+02
(PID.TID 0000.0001) %MON trcstat_ptracer19_min        =   2.5556124411301E-05
(PID.TID 0000.0001) %MON trcstat_ptracer19_mean       =   2.0396939241004E+01
(PID.TID 0000.0001) %MON trcstat_ptracer19_sd         =   5.4784315600826E+01
(PID.TID 0000.0001) %MON trcstat_ptracer19_del2       =   1.3171626460834E-02
(PID.TID 0000.0001) %MON trcstat_ptracer20_max        =   9.8841851568574E-02
(PID.TID 0000.0001) %MON trcstat_ptracer20_min        =  -9.0463974065432E-12
(PID.TID 0000.0001) %MON trcstat_ptracer20_mean       =   4.2690296714933E-05
(PID.TID 0000.0001) %MON trcstat_ptracer20_sd         =   1.6129768898852E-04
(PID.TID 0000.0001) %MON trcstat_ptracer20_del2       =   2.0688144051417E-08
(PID.TID 0000.0001) %MON trcstat_ptracer21_max        =   6.5099244260109E+01
(PID.TID 0000.0001) %MON trcstat_ptracer21_min        =  -4.1555933640019E-07
(PID.TID 0000.0001) %MON trcstat_ptracer21_mean       =   1.1869840809288E-01
(PID.TID 0000.0001) %MON trcstat_ptracer21_sd         =   9.7581046702176E-01
(PID.TID 0000.0001) %MON trcstat_ptracer21_del2       =   1.2619345361187E-03
(PID.TID 0000.0001) %MON trcstat_ptracer22_max        =   2.1969262079421E+01
(PID.TID 0000.0001) %MON trcstat_ptracer22_min        =  -2.6374384521374E-07
(PID.TID 0000.0001) %MON trcstat_ptracer22_mean       =   2.3704724316730E-02
(PID.TID 0000.0001) %MON trcstat_ptracer22_sd         =   2.3873017293300E-01
(PID.TID 0000.0001) %MON trcstat_ptracer22_del2       =   4.4612626542813E-04
(PID.TID 0000.0001) %MON trcstat_ptracer23_max        =   4.0331021527435E-11
(PID.TID 0000.0001) %MON trcstat_ptracer23_min        =  -1.0117326753491E-19
(PID.TID 0000.0001) %MON trcstat_ptracer23_mean       =   1.4755999321585E-13
(PID.TID 0000.0001) %MON trcstat_ptracer23_sd         =   5.4507596747429E-13
(PID.TID 0000.0001) %MON trcstat_ptracer23_del2       =   1.7986499964128E-16
(PID.TID 0000.0001) %MON trcstat_ptracer24_max        =   4.0331021527435E-11
(PID.TID 0000.0001) %MON trcstat_ptracer24_min        =  -1.0117326753491E-19
(PID.TID 0000.0001) %MON trcstat_ptracer24_mean       =   1.4755999321585E-13
(PID.TID 0000.0001) %MON trcstat_ptracer24_sd         =   5.4507596747429E-13
(PID.TID 0000.0001) %MON trcstat_ptracer24_del2       =   1.7986499964128E-16
(PID.TID 0000.0001) %MON trcstat_ptracer25_max        =   7.2281911996643E+00
(PID.TID 0000.0001) %MON trcstat_ptracer25_min        =  -4.4398848054323E-08
(PID.TID 0000.0001) %MON trcstat_ptracer25_mean       =   1.4426437869020E-02
(PID.TID 0000.0001) %MON trcstat_ptracer25_sd         =   1.0499116918892E-01
(PID.TID 0000.0001) %MON trcstat_ptracer25_del2       =   1.3907408876272E-04
(PID.TID 0000.0001) %MON trcstat_ptracer26_max        =   3.8002467110138E+00
(PID.TID 0000.0001) %MON trcstat_ptracer26_min        =  -2.1259238511951E-08
(PID.TID 0000.0001) %MON trcstat_ptracer26_mean       =   3.4250589744472E-03
(PID.TID 0000.0001) %MON trcstat_ptracer26_sd         =   3.4643573818584E-02
(PID.TID 0000.0001) %MON trcstat_ptracer26_del2       =   6.9419493143498E-05
(PID.TID 0000.0001) %MON trcstat_ptracer27_max        =   6.0877012279456E-12
(PID.TID 0000.0001) %MON trcstat_ptracer27_min        =  -1.5271436659372E-20
(PID.TID 0000.0001) %MON trcstat_ptracer27_mean       =   2.2273206523644E-14
(PID.TID 0000.0001) %MON trcstat_ptracer27_sd         =   8.2275617726543E-14
(PID.TID 0000.0001) %MON trcstat_ptracer27_del2       =   2.7149433907356E-17
(PID.TID 0000.0001) %MON trcstat_ptracer28_max        =   6.0877012279456E-12
(PID.TID 0000.0001) %MON trcstat_ptracer28_min        =  -1.5271436659372E-20
(PID.TID 0000.0001) %MON trcstat_ptracer28_mean       =   2.2273206523644E-14
(PID.TID 0000.0001) %MON trcstat_ptracer28_sd         =   8.2275617726543E-14
(PID.TID 0000.0001) %MON trcstat_ptracer28_del2       =   2.7149433907356E-17
(PID.TID 0000.0001) %MON trcstat_ptracer29_max        =   8.2302003239456E-02
(PID.TID 0000.0001) %MON trcstat_ptracer29_min        =  -5.6725099445607E-10
(PID.TID 0000.0001) %MON trcstat_ptracer29_mean       =   1.5275996360907E-04
(PID.TID 0000.0001) %MON trcstat_ptracer29_sd         =   1.1408850233889E-03
(PID.TID 0000.0001) %MON trcstat_ptracer29_del2       =   1.5417426189662E-06
(PID.TID 0000.0001) %MON trcstat_ptracer30_max        =   5.3381674289382E-02
(PID.TID 0000.0001) %MON trcstat_ptracer30_min        =  -3.1412588456855E-10
(PID.TID 0000.0001) %MON trcstat_ptracer30_mean       =   3.3189292192453E-05
(PID.TID 0000.0001) %MON trcstat_ptracer30_sd         =   3.4250207236811E-04
(PID.TID 0000.0001) %MON trcstat_ptracer30_del2       =   8.9607191221935E-07
(PID.TID 0000.0001) %MON trcstat_ptracer31_max        =   2.3780082921663E-14
(PID.TID 0000.0001) %MON trcstat_ptracer31_min        =  -5.9654049450673E-23
(PID.TID 0000.0001) %MON trcstat_ptracer31_mean       =   8.7004712982983E-17
(PID.TID 0000.0001) %MON trcstat_ptracer31_sd         =   3.2138913174431E-16
(PID.TID 0000.0001) %MON trcstat_ptracer31_del2       =   1.0605247620061E-19
(PID.TID 0000.0001) %MON trcstat_ptracer32_max        =   2.3780082921663E-14
(PID.TID 0000.0001) %MON trcstat_ptracer32_min        =  -5.9654049450673E-23
(PID.TID 0000.0001) %MON trcstat_ptracer32_mean       =   8.7004712982983E-17
(PID.TID 0000.0001) %MON trcstat_ptracer32_sd         =   3.2138913174431E-16
(PID.TID 0000.0001) %MON trcstat_ptracer32_del2       =   1.0605247620061E-19
(PID.TID 0000.0001) %MON trcstat_ptracer33_max        =   2.8564130059207E-03
(PID.TID 0000.0001) %MON trcstat_ptracer33_min        =  -2.7413644735547E-11
(PID.TID 0000.0001) %MON trcstat_ptracer33_mean       =   6.5995994000839E-06
(PID.TID 0000.0001) %MON trcstat_ptracer33_sd         =   3.9843179583224E-05
(PID.TID 0000.0001) %MON trcstat_ptracer33_del2       =   4.9001470766417E-08
(PID.TID 0000.0001) %MON trcstat_ptracer34_max        =   1.0313562325803E-03
(PID.TID 0000.0001) %MON trcstat_ptracer34_min        =  -7.9843380387497E-12
(PID.TID 0000.0001) %MON trcstat_ptracer34_mean       =   1.4699316477612E-06
(PID.TID 0000.0001) %MON trcstat_ptracer34_sd         =   1.0648133638708E-05
(PID.TID 0000.0001) %MON trcstat_ptracer34_del2       =   1.8034995411054E-08
(PID.TID 0000.0001) %MON trcstat_ptracer35_max        =   4.0331022113944E-14
(PID.TID 0000.0001) %MON trcstat_ptracer35_min        =  -1.0117326762776E-22
(PID.TID 0000.0001) %MON trcstat_ptracer35_mean       =   1.4755999321301E-16
(PID.TID 0000.0001) %MON trcstat_ptracer35_sd         =   5.4507596744257E-16
(PID.TID 0000.0001) %MON trcstat_ptracer35_del2       =   1.7986499959429E-19
(PID.TID 0000.0001) %MON trcstat_ptracer36_max        =   4.0331022113944E-14
(PID.TID 0000.0001) %MON trcstat_ptracer36_min        =  -1.0117326762776E-22
(PID.TID 0000.0001) %MON trcstat_ptracer36_mean       =   1.4755999321301E-16
(PID.TID 0000.0001) %MON trcstat_ptracer36_sd         =   5.4507596744257E-16
(PID.TID 0000.0001) %MON trcstat_ptracer36_del2       =   1.7986499959429E-19
(PID.TID 0000.0001) // =======================================================
(PID.TID 0000.0001) // End MONITOR ptracer field statistics
(PID.TID 0000.0001) // =======================================================
(PID.TID 0000.0001) // =======================================================
(PID.TID 0000.0001) // Begin MONITOR EXF statistics
(PID.TID 0000.0001) // =======================================================
(PID.TID 0000.0001) %MON exf_tsnumber                 =                     0
(PID.TID 0000.0001) %MON exf_time_sec                 =   0.0000000000000E+00
(PID.TID 0000.0001) %MON exf_ustress_max              =   0.0000000000000E+00
(PID.TID 0000.0001) %MON exf_ustress_min              =   0.0000000000000E+00
(PID.TID 0000.0001) %MON exf_ustress_mean             =   0.0000000000000E+00
(PID.TID 0000.0001) %MON exf_ustress_sd               =   0.0000000000000E+00
(PID.TID 0000.0001) %MON exf_ustress_del2             =   0.0000000000000E+00
(PID.TID 0000.0001) %MON exf_vstress_max              =   0.0000000000000E+00
(PID.TID 0000.0001) %MON exf_vstress_min              =   0.0000000000000E+00
(PID.TID 0000.0001) %MON exf_vstress_mean             =   0.0000000000000E+00
(PID.TID 0000.0001) %MON exf_vstress_sd               =   0.0000000000000E+00
(PID.TID 0000.0001) %MON exf_vstress_del2             =   0.0000000000000E+00
(PID.TID 0000.0001) %MON exf_hflux_max                =   0.0000000000000E+00
(PID.TID 0000.0001) %MON exf_hflux_min                =   0.0000000000000E+00
(PID.TID 0000.0001) %MON exf_hflux_mean               =   0.0000000000000E+00
(PID.TID 0000.0001) %MON exf_hflux_sd                 =   0.0000000000000E+00
(PID.TID 0000.0001) %MON exf_hflux_del2               =   0.0000000000000E+00
(PID.TID 0000.0001) %MON exf_sflux_max                =   0.0000000000000E+00
(PID.TID 0000.0001) %MON exf_sflux_min                =   0.0000000000000E+00
(PID.TID 0000.0001) %MON exf_sflux_mean               =   0.0000000000000E+00
(PID.TID 0000.0001) %MON exf_sflux_sd                 =   0.0000000000000E+00
(PID.TID 0000.0001) %MON exf_sflux_del2               =   0.0000000000000E+00
(PID.TID 0000.0001) %MON exf_uwind_max                =   0.0000000000000E+00
(PID.TID 0000.0001) %MON exf_uwind_min                =   0.0000000000000E+00
(PID.TID 0000.0001) %MON exf_uwind_mean               =   0.0000000000000E+00
(PID.TID 0000.0001) %MON exf_uwind_sd                 =   0.0000000000000E+00
(PID.TID 0000.0001) %MON exf_uwind_del2               =   0.0000000000000E+00
(PID.TID 0000.0001) %MON exf_vwind_max                =   0.0000000000000E+00
(PID.TID 0000.0001) %MON exf_vwind_min                =   0.0000000000000E+00
(PID.TID 0000.0001) %MON exf_vwind_mean               =   0.0000000000000E+00
(PID.TID 0000.0001) %MON exf_vwind_sd                 =   0.0000000000000E+00
(PID.TID 0000.0001) %MON exf_vwind_del2               =   0.0000000000000E+00
(PID.TID 0000.0001) %MON exf_wspeed_max               =   0.0000000000000E+00
(PID.TID 0000.0001) %MON exf_wspeed_min               =   0.0000000000000E+00
(PID.TID 0000.0001) %MON exf_wspeed_mean              =   0.0000000000000E+00
(PID.TID 0000.0001) %MON exf_wspeed_sd                =   0.0000000000000E+00
(PID.TID 0000.0001) %MON exf_wspeed_del2              =   0.0000000000000E+00
(PID.TID 0000.0001) %MON exf_evap_max                 =   0.0000000000000E+00
(PID.TID 0000.0001) %MON exf_evap_min                 =   0.0000000000000E+00
(PID.TID 0000.0001) %MON exf_evap_mean                =   0.0000000000000E+00
(PID.TID 0000.0001) %MON exf_evap_sd                  =   0.0000000000000E+00
(PID.TID 0000.0001) %MON exf_evap_del2                =   0.0000000000000E+00
(PID.TID 0000.0001) // =======================================================
(PID.TID 0000.0001) // End MONITOR EXF statistics
(PID.TID 0000.0001) // =======================================================
 EXTERNAL_FIELDS_LOAD, it=         0 : Reading new data, i0,i1=   12    1 (prev=   12    0 )
(PID.TID 0000.0001)  MDS_READ_FIELD: opening global file: input_ecco/ecco_oasim_edp01_below.bin
(PID.TID 0000.0001)  MDS_READ_FIELD: opening global file: input_ecco/ecco_oasim_edp01_below.bin
(PID.TID 0000.0001)  MDS_READ_FIELD: opening global file: input_ecco/ecco_oasim_esp01_below.bin
(PID.TID 0000.0001)  MDS_READ_FIELD: opening global file: input_ecco/ecco_oasim_esp01_below.bin
(PID.TID 0000.0001)  MDS_READ_FIELD: opening global file: input_ecco/ecco_oasim_edp02_below.bin
(PID.TID 0000.0001)  MDS_READ_FIELD: opening global file: input_ecco/ecco_oasim_edp02_below.bin
(PID.TID 0000.0001)  MDS_READ_FIELD: opening global file: input_ecco/ecco_oasim_esp02_below.bin
(PID.TID 0000.0001)  MDS_READ_FIELD: opening global file: input_ecco/ecco_oasim_esp02_below.bin
(PID.TID 0000.0001)  MDS_READ_FIELD: opening global file: input_ecco/ecco_oasim_edp03_below.bin
(PID.TID 0000.0001)  MDS_READ_FIELD: opening global file: input_ecco/ecco_oasim_edp03_below.bin
(PID.TID 0000.0001)  MDS_READ_FIELD: opening global file: input_ecco/ecco_oasim_esp03_below.bin
(PID.TID 0000.0001)  MDS_READ_FIELD: opening global file: input_ecco/ecco_oasim_esp03_below.bin
(PID.TID 0000.0001)  MDS_READ_FIELD: opening global file: input_ecco/ecco_oasim_edp04_below.bin
(PID.TID 0000.0001)  MDS_READ_FIELD: opening global file: input_ecco/ecco_oasim_edp04_below.bin
(PID.TID 0000.0001)  MDS_READ_FIELD: opening global file: input_ecco/ecco_oasim_esp04_below.bin
(PID.TID 0000.0001)  MDS_READ_FIELD: opening global file: input_ecco/ecco_oasim_esp04_below.bin
(PID.TID 0000.0001)  MDS_READ_FIELD: opening global file: input_ecco/ecco_oasim_edp05_below.bin
(PID.TID 0000.0001)  MDS_READ_FIELD: opening global file: input_ecco/ecco_oasim_edp05_below.bin
(PID.TID 0000.0001)  MDS_READ_FIELD: opening global file: input_ecco/ecco_oasim_esp05_below.bin
(PID.TID 0000.0001)  MDS_READ_FIELD: opening global file: input_ecco/ecco_oasim_esp05_below.bin
(PID.TID 0000.0001)  MDS_READ_FIELD: opening global file: input_ecco/ecco_oasim_edp06_below.bin
(PID.TID 0000.0001)  MDS_READ_FIELD: opening global file: input_ecco/ecco_oasim_edp06_below.bin
(PID.TID 0000.0001)  MDS_READ_FIELD: opening global file: input_ecco/ecco_oasim_esp06_below.bin
(PID.TID 0000.0001)  MDS_READ_FIELD: opening global file: input_ecco/ecco_oasim_esp06_below.bin
(PID.TID 0000.0001)  MDS_READ_FIELD: opening global file: input_ecco/ecco_oasim_edp07_below.bin
(PID.TID 0000.0001)  MDS_READ_FIELD: opening global file: input_ecco/ecco_oasim_edp07_below.bin
(PID.TID 0000.0001)  MDS_READ_FIELD: opening global file: input_ecco/ecco_oasim_esp07_below.bin
(PID.TID 0000.0001)  MDS_READ_FIELD: opening global file: input_ecco/ecco_oasim_esp07_below.bin
(PID.TID 0000.0001)  MDS_READ_FIELD: opening global file: input_ecco/ecco_oasim_edp08_below.bin
(PID.TID 0000.0001)  MDS_READ_FIELD: opening global file: input_ecco/ecco_oasim_edp08_below.bin
(PID.TID 0000.0001)  MDS_READ_FIELD: opening global file: input_ecco/ecco_oasim_esp08_below.bin
(PID.TID 0000.0001)  MDS_READ_FIELD: opening global file: input_ecco/ecco_oasim_esp08_below.bin
(PID.TID 0000.0001)  MDS_READ_FIELD: opening global file: input_ecco/ecco_oasim_edp09_below.bin
(PID.TID 0000.0001)  MDS_READ_FIELD: opening global file: input_ecco/ecco_oasim_edp09_below.bin
(PID.TID 0000.0001)  MDS_READ_FIELD: opening global file: input_ecco/ecco_oasim_esp09_below.bin
(PID.TID 0000.0001)  MDS_READ_FIELD: opening global file: input_ecco/ecco_oasim_esp09_below.bin
(PID.TID 0000.0001)  MDS_READ_FIELD: opening global file: input_ecco/ecco_oasim_edp10_below.bin
(PID.TID 0000.0001)  MDS_READ_FIELD: opening global file: input_ecco/ecco_oasim_edp10_below.bin
(PID.TID 0000.0001)  MDS_READ_FIELD: opening global file: input_ecco/ecco_oasim_esp10_below.bin
(PID.TID 0000.0001)  MDS_READ_FIELD: opening global file: input_ecco/ecco_oasim_esp10_below.bin
(PID.TID 0000.0001)  MDS_READ_FIELD: opening global file: input_ecco/ecco_oasim_edp11_below.bin
(PID.TID 0000.0001)  MDS_READ_FIELD: opening global file: input_ecco/ecco_oasim_edp11_below.bin
(PID.TID 0000.0001)  MDS_READ_FIELD: opening global file: input_ecco/ecco_oasim_esp11_below.bin
(PID.TID 0000.0001)  MDS_READ_FIELD: opening global file: input_ecco/ecco_oasim_esp11_below.bin
(PID.TID 0000.0001)  MDS_READ_FIELD: opening global file: input_ecco/ecco_oasim_edp12_below.bin
(PID.TID 0000.0001)  MDS_READ_FIELD: opening global file: input_ecco/ecco_oasim_edp12_below.bin
(PID.TID 0000.0001)  MDS_READ_FIELD: opening global file: input_ecco/ecco_oasim_esp12_below.bin
(PID.TID 0000.0001)  MDS_READ_FIELD: opening global file: input_ecco/ecco_oasim_esp12_below.bin
(PID.TID 0000.0001)  MDS_READ_FIELD: opening global file: input_ecco/ecco_oasim_edp13_below.bin
(PID.TID 0000.0001)  MDS_READ_FIELD: opening global file: input_ecco/ecco_oasim_edp13_below.bin
(PID.TID 0000.0001)  MDS_READ_FIELD: opening global file: input_ecco/ecco_oasim_esp13_below.bin
(PID.TID 0000.0001)  MDS_READ_FIELD: opening global file: input_ecco/ecco_oasim_esp13_below.bin
(PID.TID 0000.0001)  MDS_READ_FIELD: opening global file: eccov3/SIarea.bin
(PID.TID 0000.0001)  MDS_READ_FIELD: opening global file: eccov3/SIarea.bin
(PID.TID 0000.0001) // =======================================================
(PID.TID 0000.0001) // Begin MONITOR RADTRANS statistics
(PID.TID 0000.0001) // =======================================================
(PID.TID 0000.0001) %MON RT_tsnumber                  =                     0
(PID.TID 0000.0001) %MON RT_time_sec                  =   0.0000000000000E+00
(PID.TID 0000.0001) %MON RT_Ed001_max                 =   2.7646229267120E+00
(PID.TID 0000.0001) %MON RT_Ed001_min                 =   2.5806488522093E-37
(PID.TID 0000.0001) %MON RT_Ed001_mean                =   9.5076945363030E-01
(PID.TID 0000.0001) %MON RT_Ed001_sd                  =   6.8290127821717E-01
(PID.TID 0000.0001) %MON RT_Ed001_del2                =   2.4693268657356E-04
(PID.TID 0000.0001) %MON RT_Ed002_max                 =   7.1684303283691E+00
(PID.TID 0000.0001) %MON RT_Ed002_min                 =   5.1612977044186E-37
(PID.TID 0000.0001) %MON RT_Ed002_mean                =   2.4685054228588E+00
(PID.TID 0000.0001) %MON RT_Ed002_sd                  =   1.7469589586671E+00
(PID.TID 0000.0001) %MON RT_Ed002_del2                =   6.2694599321775E-04
(PID.TID 0000.0001) %MON RT_Ed003_max                 =   8.7451581954956E+00
(PID.TID 0000.0001) %MON RT_Ed003_min                 =   5.1612977044186E-37
(PID.TID 0000.0001) %MON RT_Ed003_mean                =   2.9974971180269E+00
(PID.TID 0000.0001) %MON RT_Ed003_sd                  =   2.1073022920969E+00
(PID.TID 0000.0001) %MON RT_Ed003_del2                =   7.6407250916872E-04
(PID.TID 0000.0001) %MON RT_Ed004_max                 =   9.2580008506775E+00
(PID.TID 0000.0001) %MON RT_Ed004_min                 =   5.1612977044186E-37
(PID.TID 0000.0001) %MON RT_Ed004_mean                =   3.1836416803410E+00
(PID.TID 0000.0001) %MON RT_Ed004_sd                  =   2.2159237341135E+00
(PID.TID 0000.0001) %MON RT_Ed004_del2                =   8.0130372103029E-04
(PID.TID 0000.0001) %MON RT_Ed005_max                 =   9.3324933052063E+00
(PID.TID 0000.0001) %MON RT_Ed005_min                 =   5.1612983770419E-37
(PID.TID 0000.0001) %MON RT_Ed005_mean                =   3.2171404970202E+00
(PID.TID 0000.0001) %MON RT_Ed005_sd                  =   2.2191218739861E+00
(PID.TID 0000.0001) %MON RT_Ed005_del2                =   7.9682762764531E-04
(PID.TID 0000.0001) %MON RT_Ed006_max                 =   9.1638178825378E+00
(PID.TID 0000.0001) %MON RT_Ed006_min                 =   5.1612986012496E-37
(PID.TID 0000.0001) %MON RT_Ed006_mean                =   3.1754211081675E+00
(PID.TID 0000.0001) %MON RT_Ed006_sd                  =   2.1766620913956E+00
(PID.TID 0000.0001) %MON RT_Ed006_del2                =   7.8064703613617E-04
(PID.TID 0000.0001) %MON RT_Ed007_max                 =   9.2930526733398E+00
(PID.TID 0000.0001) %MON RT_Ed007_min                 =   5.1612988254574E-37
(PID.TID 0000.0001) %MON RT_Ed007_mean                =   3.2273793307710E+00
(PID.TID 0000.0001) %MON RT_Ed007_sd                  =   2.2027847759189E+00
(PID.TID 0000.0001) %MON RT_Ed007_del2                =   7.8815659290400E-04
(PID.TID 0000.0001) %MON RT_Ed008_max                 =   9.1989860534668E+00
(PID.TID 0000.0001) %MON RT_Ed008_min                 =   5.1612997222884E-37
(PID.TID 0000.0001) %MON RT_Ed008_mean                =   3.1809230355733E+00
(PID.TID 0000.0001) %MON RT_Ed008_sd                  =   2.1650491691806E+00
(PID.TID 0000.0001) %MON RT_Ed008_del2                =   7.7286717322965E-04
(PID.TID 0000.0001) %MON RT_Ed009_max                 =   8.7414617538452E+00
(PID.TID 0000.0001) %MON RT_Ed009_min                 =   5.1613044306512E-37
(PID.TID 0000.0001) %MON RT_Ed009_mean                =   3.0228848412025E+00
(PID.TID 0000.0001) %MON RT_Ed009_sd                  =   2.0479954634731E+00
(PID.TID 0000.0001) %MON RT_Ed009_del2                =   7.3180490423315E-04
(PID.TID 0000.0001) %MON RT_Ed010_max                 =   8.6742177009583E+00
(PID.TID 0000.0001) %MON RT_Ed010_min                 =   5.1613082421830E-37
(PID.TID 0000.0001) %MON RT_Ed010_mean                =   3.0165833224041E+00
(PID.TID 0000.0001) %MON RT_Ed010_sd                  =   2.0387917890044E+00
(PID.TID 0000.0001) %MON RT_Ed010_del2                =   7.2750059119345E-04
(PID.TID 0000.0001) %MON RT_Ed011_max                 =   8.2051599025726E+00
(PID.TID 0000.0001) %MON RT_Ed011_min                 =   5.1613118295071E-37
(PID.TID 0000.0001) %MON RT_Ed011_mean                =   2.8454421981222E+00
(PID.TID 0000.0001) %MON RT_Ed011_sd                  =   1.9148210724361E+00
(PID.TID 0000.0001) %MON RT_Ed011_del2                =   6.9002675365514E-04
(PID.TID 0000.0001) %MON RT_Ed012_max                 =   7.4854869842529E+00
(PID.TID 0000.0001) %MON RT_Ed012_min                 =   5.1613140715847E-37
(PID.TID 0000.0001) %MON RT_Ed012_mean                =   2.5976102720157E+00
(PID.TID 0000.0001) %MON RT_Ed012_sd                  =   1.7518365961304E+00
(PID.TID 0000.0001) %MON RT_Ed012_del2                =   6.2656489894040E-04
(PID.TID 0000.0001) %MON RT_Ed013_max                 =   3.6984523534775E+00
(PID.TID 0000.0001) %MON RT_Ed013_min                 =   5.1613212462328E-37
(PID.TID 0000.0001) %MON RT_Ed013_mean                =   1.2779791858953E+00
(PID.TID 0000.0001) %MON RT_Ed013_sd                  =   8.5774356093601E-01
(PID.TID 0000.0001) %MON RT_Ed013_del2                =   3.0897859807865E-04
(PID.TID 0000.0001) %MON RT_Es001_max                 =   2.9259824752808E+00
(PID.TID 0000.0001) %MON RT_Es001_min                 =   4.6923427476717E-37
(PID.TID 0000.0001) %MON RT_Es001_mean                =   1.9221824112748E+00
(PID.TID 0000.0001) %MON RT_Es001_sd                  =   7.2425882921222E-01
(PID.TID 0000.0001) %MON RT_Es001_del2                =   1.7542049072437E-04
(PID.TID 0000.0001) %MON RT_Es002_max                 =   6.9807722568512E+00
(PID.TID 0000.0001) %MON RT_Es002_min                 =   9.3846854953434E-37
(PID.TID 0000.0001) %MON RT_Es002_mean                =   4.5357153573008E+00
(PID.TID 0000.0001) %MON RT_Es002_sd                  =   1.7201778389389E+00
(PID.TID 0000.0001) %MON RT_Es002_del2                =   4.3318749954377E-04
(PID.TID 0000.0001) %MON RT_Es003_max                 =   8.0272638797760E+00
(PID.TID 0000.0001) %MON RT_Es003_min                 =   9.3846854953434E-37
(PID.TID 0000.0001) %MON RT_Es003_mean                =   5.1679779946339E+00
(PID.TID 0000.0001) %MON RT_Es003_sd                  =   1.9762166392442E+00
(PID.TID 0000.0001) %MON RT_Es003_del2                =   5.2093878575208E-04
(PID.TID 0000.0001) %MON RT_Es004_max                 =   8.0648508071899E+00
(PID.TID 0000.0001) %MON RT_Es004_min                 =   9.3846859437589E-37
(PID.TID 0000.0001) %MON RT_Es004_mean                =   5.1505708720594E+00
(PID.TID 0000.0001) %MON RT_Es004_sd                  =   1.9827386842937E+00
(PID.TID 0000.0001) %MON RT_Es004_del2                =   5.3891518957687E-04
(PID.TID 0000.0001) %MON RT_Es005_max                 =   7.7766842842102E+00
(PID.TID 0000.0001) %MON RT_Es005_min                 =   9.3846863921744E-37
(PID.TID 0000.0001) %MON RT_Es005_mean                =   4.9329771120823E+00
(PID.TID 0000.0001) %MON RT_Es005_sd                  =   1.9121043550469E+00
(PID.TID 0000.0001) %MON RT_Es005_del2                =   5.3126315903867E-04
(PID.TID 0000.0001) %MON RT_Es006_max                 =   7.3734605312347E+00
(PID.TID 0000.0001) %MON RT_Es006_min                 =   9.3846877374210E-37
(PID.TID 0000.0001) %MON RT_Es006_mean                =   4.6471053584041E+00
(PID.TID 0000.0001) %MON RT_Es006_sd                  =   1.8166714213972E+00
(PID.TID 0000.0001) %MON RT_Es006_del2                =   5.1552843332951E-04
(PID.TID 0000.0001) %MON RT_Es007_max                 =   7.2594125270844E+00
(PID.TID 0000.0001) %MON RT_Es007_min                 =   9.3846886342520E-37
(PID.TID 0000.0001) %MON RT_Es007_mean                =   4.5511466070763E+00
(PID.TID 0000.0001) %MON RT_Es007_sd                  =   1.7940483692689E+00
(PID.TID 0000.0001) %MON RT_Es007_del2                =   5.1709289354170E-04
(PID.TID 0000.0001) %MON RT_Es008_max                 =   7.0184249877930E+00
(PID.TID 0000.0001) %MON RT_Es008_min                 =   9.3846904279140E-37
(PID.TID 0000.0001) %MON RT_Es008_mean                =   4.3710324453455E+00
(PID.TID 0000.0001) %MON RT_Es008_sd                  =   1.7379357969992E+00
(PID.TID 0000.0001) %MON RT_Es008_del2                =   5.0720882537014E-04
(PID.TID 0000.0001) %MON RT_Es009_max                 =   6.5693130493164E+00
(PID.TID 0000.0001) %MON RT_Es009_min                 =   9.3846980509777E-37
(PID.TID 0000.0001) %MON RT_Es009_mean                =   4.0587174598349E+00
(PID.TID 0000.0001) %MON RT_Es009_sd                  =   1.6233177043468E+00
(PID.TID 0000.0001) %MON RT_Es009_del2                =   4.8127870849258E-04
(PID.TID 0000.0001) %MON RT_Es010_max                 =   6.4144325256348E+00
(PID.TID 0000.0001) %MON RT_Es010_min                 =   9.3847034319638E-37
(PID.TID 0000.0001) %MON RT_Es010_mean                =   3.9763290481803E+00
(PID.TID 0000.0001) %MON RT_Es010_sd                  =   1.5882320050150E+00
(PID.TID 0000.0001) %MON RT_Es010_del2                =   4.7541562243127E-04
(PID.TID 0000.0001) %MON RT_Es011_max                 =   6.0378134250641E+00
(PID.TID 0000.0001) %MON RT_Es011_min                 =   9.3847074677034E-37
(PID.TID 0000.0001) %MON RT_Es011_mean                =   3.7217907162379E+00
(PID.TID 0000.0001) %MON RT_Es011_sd                  =   1.4845070953156E+00
(PID.TID 0000.0001) %MON RT_Es011_del2                =   4.5550312970523E-04
(PID.TID 0000.0001) %MON RT_Es012_max                 =   5.4185078144073E+00
(PID.TID 0000.0001) %MON RT_Es012_min                 =   9.3847132971050E-37
(PID.TID 0000.0001) %MON RT_Es012_mean                =   3.3338891763687E+00
(PID.TID 0000.0001) %MON RT_Es012_sd                  =   1.3450475597319E+00
(PID.TID 0000.0001) %MON RT_Es012_del2                =   4.0914223845646E-04
(PID.TID 0000.0001) %MON RT_Es013_max                 =   2.6722790002823E+00
(PID.TID 0000.0001) %MON RT_Es013_min                 =   9.3847227138306E-37
(PID.TID 0000.0001) %MON RT_Es013_mean                =   1.6316547917534E+00
(PID.TID 0000.0001) %MON RT_Es013_sd                  =   6.5800521144528E-01
(PID.TID 0000.0001) %MON RT_Es013_del2                =   2.0402254627670E-04
(PID.TID 0000.0001) // =======================================================
(PID.TID 0000.0001) // End MONITOR RADTRANS statistics
(PID.TID 0000.0001) // =======================================================
(PID.TID 0000.0001)  MDS_READ_FIELD: opening global file: input_ecco/mahowald2009_solubile_current_smooth_oce_mth-2d.bin
(PID.TID 0000.0001)  MDS_READ_FIELD: opening global file: input_ecco/mahowald2009_solubile_current_smooth_oce_mth-2d.bin
(PID.TID 0000.0001)  MDS_READ_FIELD: opening global file: eccov3/SIarea.bin
(PID.TID 0000.0001)  MDS_READ_FIELD: opening global file: eccov3/SIarea.bin
(PID.TID 0000.0001)  MDS_READ_FIELD: opening global file: input_ecco/tren_speed_mth-2d.bin
(PID.TID 0000.0001)  MDS_READ_FIELD: opening global file: input_ecco/tren_speed_mth-2d.bin
(PID.TID 0000.0001) // =======================================================
(PID.TID 0000.0001) // Begin MONITOR DARWIN statistics
(PID.TID 0000.0001) // =======================================================
(PID.TID 0000.0001) %MON darwin_tsnumber              =                     0
(PID.TID 0000.0001) %MON darwin_time_sec              =   0.0000000000000E+00
(PID.TID 0000.0001) %MON darwin_surfPAR_max           =   0.0000000000000E+00
(PID.TID 0000.0001) %MON darwin_surfPAR_min           =   0.0000000000000E+00
(PID.TID 0000.0001) %MON darwin_surfPAR_mean          =   0.0000000000000E+00
(PID.TID 0000.0001) %MON darwin_surfPAR_sd            =   0.0000000000000E+00
(PID.TID 0000.0001) %MON darwin_surfPAR_del2          =   0.0000000000000E+00
(PID.TID 0000.0001) %MON darwin_inputFe_max           =   4.8211757936595E-09
(PID.TID 0000.0001) %MON darwin_inputFe_min           =   7.4736967425182E-12
(PID.TID 0000.0001) %MON darwin_inputFe_mean          =   4.3463425872102E-10
(PID.TID 0000.0001) %MON darwin_inputFe_sd            =   5.1787502361184E-10
(PID.TID 0000.0001) %MON darwin_inputFe_del2          =   1.6357192193670E-13
(PID.TID 0000.0001) %MON darwin_iceFrac_max           =   1.0000000000000E+00
(PID.TID 0000.0001) %MON darwin_iceFrac_min           =   0.0000000000000E+00
(PID.TID 0000.0001) %MON darwin_iceFrac_mean          =   6.0783934439122E-03
(PID.TID 0000.0001) %MON darwin_iceFrac_sd            =   6.5601747988505E-02
(PID.TID 0000.0001) %MON darwin_iceFrac_del2          =   2.8682390239197E-04
(PID.TID 0000.0001) %MON darwin_windSpeed_max         =   1.4269700050354E+01
(PID.TID 0000.0001) %MON darwin_windSpeed_min         =   2.1539999246597E+00
(PID.TID 0000.0001) %MON darwin_windSpeed_mean        =   7.6791324106333E+00
(PID.TID 0000.0001) %MON darwin_windSpeed_sd          =   2.3580413511338E+00
(PID.TID 0000.0001) %MON darwin_windSpeed_del2        =   8.2324927241625E-04
(PID.TID 0000.0001) %MON darwin_atmospCO2_max         =   2.7800000000000E-04
(PID.TID 0000.0001) %MON darwin_atmospCO2_min         =   2.7800000000000E-04
(PID.TID 0000.0001) %MON darwin_atmospCO2_mean        =   2.7800000000000E-04
(PID.TID 0000.0001) %MON darwin_atmospCO2_sd          =   5.4210108624275E-19
(PID.TID 0000.0001) %MON darwin_atmospCO2_del2        =   0.0000000000000E+00
(PID.TID 0000.0001) %MON darwin_ventHe3_max           =   0.0000000000000E+00
(PID.TID 0000.0001) %MON darwin_ventHe3_min           =   0.0000000000000E+00
(PID.TID 0000.0001) %MON darwin_ventHe3_mean          =   0.0000000000000E+00
(PID.TID 0000.0001) %MON darwin_ventHe3_sd            =   0.0000000000000E+00
(PID.TID 0000.0001) %MON darwin_ventHe3_del2          =   0.0000000000000E+00
(PID.TID 0000.0001) %MON darwin_DOCrunoff_max         =   0.0000000000000E+00
(PID.TID 0000.0001) %MON darwin_DOCrunoff_min         =   0.0000000000000E+00
(PID.TID 0000.0001) %MON darwin_DOCrunoff_mean        =   0.0000000000000E+00
(PID.TID 0000.0001) %MON darwin_DOCrunoff_sd          =   0.0000000000000E+00
(PID.TID 0000.0001) %MON darwin_DOCrunoff_del2        =   0.0000000000000E+00
(PID.TID 0000.0001) %MON darwin_DONrunoff_max         =   0.0000000000000E+00
(PID.TID 0000.0001) %MON darwin_DONrunoff_min         =   0.0000000000000E+00
(PID.TID 0000.0001) %MON darwin_DONrunoff_mean        =   0.0000000000000E+00
(PID.TID 0000.0001) %MON darwin_DONrunoff_sd          =   0.0000000000000E+00
(PID.TID 0000.0001) %MON darwin_DONrunoff_del2        =   0.0000000000000E+00
(PID.TID 0000.0001) %MON darwin_DOPrunoff_max         =   0.0000000000000E+00
(PID.TID 0000.0001) %MON darwin_DOPrunoff_min         =   0.0000000000000E+00
(PID.TID 0000.0001) %MON darwin_DOPrunoff_mean        =   0.0000000000000E+00
(PID.TID 0000.0001) %MON darwin_DOPrunoff_sd          =   0.0000000000000E+00
(PID.TID 0000.0001) %MON darwin_DOPrunoff_del2        =   0.0000000000000E+00
(PID.TID 0000.0001) %MON darwin_DINrunoff_max         =   0.0000000000000E+00
(PID.TID 0000.0001) %MON darwin_DINrunoff_min         =   0.0000000000000E+00
(PID.TID 0000.0001) %MON darwin_DINrunoff_mean        =   0.0000000000000E+00
(PID.TID 0000.0001) %MON darwin_DINrunoff_sd          =   0.0000000000000E+00
(PID.TID 0000.0001) %MON darwin_DINrunoff_del2        =   0.0000000000000E+00
(PID.TID 0000.0001) %MON darwin_IPrunoff_max          =   0.0000000000000E+00
(PID.TID 0000.0001) %MON darwin_IPrunoff_min          =   0.0000000000000E+00
(PID.TID 0000.0001) %MON darwin_IPrunoff_mean         =   0.0000000000000E+00
(PID.TID 0000.0001) %MON darwin_IPrunoff_sd           =   0.0000000000000E+00
(PID.TID 0000.0001) %MON darwin_IPrunoff_del2         =   0.0000000000000E+00
(PID.TID 0000.0001) %MON darwin_DSirunoff_max         =   0.0000000000000E+00
(PID.TID 0000.0001) %MON darwin_DSirunoff_min         =   0.0000000000000E+00
(PID.TID 0000.0001) %MON darwin_DSirunoff_mean        =   0.0000000000000E+00
(PID.TID 0000.0001) %MON darwin_DSirunoff_sd          =   0.0000000000000E+00
(PID.TID 0000.0001) %MON darwin_DSirunoff_del2        =   0.0000000000000E+00
(PID.TID 0000.0001) %MON darwin_POCrunoff_max         =   0.0000000000000E+00
(PID.TID 0000.0001) %MON darwin_POCrunoff_min         =   0.0000000000000E+00
(PID.TID 0000.0001) %MON darwin_POCrunoff_mean        =   0.0000000000000E+00
(PID.TID 0000.0001) %MON darwin_POCrunoff_sd          =   0.0000000000000E+00
(PID.TID 0000.0001) %MON darwin_POCrunoff_del2        =   0.0000000000000E+00
(PID.TID 0000.0001) %MON darwin_POPrunoff_max         =   0.0000000000000E+00
(PID.TID 0000.0001) %MON darwin_POPrunoff_min         =   0.0000000000000E+00
(PID.TID 0000.0001) %MON darwin_POPrunoff_mean        =   0.0000000000000E+00
(PID.TID 0000.0001) %MON darwin_POPrunoff_sd          =   0.0000000000000E+00
(PID.TID 0000.0001) %MON darwin_POPrunoff_del2        =   0.0000000000000E+00
(PID.TID 0000.0001) %MON darwin_PONrunoff_max         =   0.0000000000000E+00
(PID.TID 0000.0001) %MON darwin_PONrunoff_min         =   0.0000000000000E+00
(PID.TID 0000.0001) %MON darwin_PONrunoff_mean        =   0.0000000000000E+00
(PID.TID 0000.0001) %MON darwin_PONrunoff_sd          =   0.0000000000000E+00
(PID.TID 0000.0001) %MON darwin_PONrunoff_del2        =   0.0000000000000E+00
(PID.TID 0000.0001) %MON darwin_DICrunoff_max         =   0.0000000000000E+00
(PID.TID 0000.0001) %MON darwin_DICrunoff_min         =   0.0000000000000E+00
(PID.TID 0000.0001) %MON darwin_DICrunoff_mean        =   0.0000000000000E+00
(PID.TID 0000.0001) %MON darwin_DICrunoff_sd          =   0.0000000000000E+00
(PID.TID 0000.0001) %MON darwin_DICrunoff_del2        =   0.0000000000000E+00
(PID.TID 0000.0001) // =======================================================
(PID.TID 0000.0001) // End MONITOR DARWIN statistics
(PID.TID 0000.0001) // =======================================================
(PID.TID 0000.0001) // =======================================================
(PID.TID 0000.0001) // Begin MONITOR dynamic field statistics
(PID.TID 0000.0001) // =======================================================
(PID.TID 0000.0001) %MON time_tsnumber                =                     1
(PID.TID 0000.0001) %MON time_secondsf                =   3.6000000000000E+03
(PID.TID 0000.0001) %MON dynstat_eta_max              =   0.0000000000000E+00
(PID.TID 0000.0001) %MON dynstat_eta_min              =   0.0000000000000E+00
(PID.TID 0000.0001) %MON dynstat_eta_mean             =   0.0000000000000E+00
(PID.TID 0000.0001) %MON dynstat_eta_sd               =   0.0000000000000E+00
(PID.TID 0000.0001) %MON dynstat_eta_del2             =   0.0000000000000E+00
(PID.TID 0000.0001) %MON dynstat_uvel_max             =   7.6224331557751E-01
(PID.TID 0000.0001) %MON dynstat_uvel_min             =  -8.4551832328240E-01
(PID.TID 0000.0001) %MON dynstat_uvel_mean            =   2.3488510868971E-03
(PID.TID 0000.0001) %MON dynstat_uvel_sd              =   2.2876092244162E-02
(PID.TID 0000.0001) %MON dynstat_uvel_del2            =   2.5345059059713E-05
(PID.TID 0000.0001) %MON dynstat_vvel_max             =   1.3947805960973E+00
(PID.TID 0000.0001) %MON dynstat_vvel_min             =  -7.8304195652405E-01
(PID.TID 0000.0001) %MON dynstat_vvel_mean            =  -1.8357989980419E-05
(PID.TID 0000.0001) %MON dynstat_vvel_sd              =   1.1609716324812E-02
(PID.TID 0000.0001) %MON dynstat_vvel_del2            =   2.3750840681849E-05
(PID.TID 0000.0001) %MON dynstat_wvel_max             =   4.4084640527823E-04
(PID.TID 0000.0001) %MON dynstat_wvel_min             =  -6.2028779939283E-04
(PID.TID 0000.0001) %MON dynstat_wvel_mean            =   2.1006470964876E-14
(PID.TID 0000.0001) %MON dynstat_wvel_sd              =   1.0073724768128E-05
(PID.TID 0000.0001) %MON dynstat_wvel_del2            =   1.8558652944887E-08
(PID.TID 0000.0001) %MON dynstat_theta_max            =   3.1777241945267E+01
(PID.TID 0000.0001) %MON dynstat_theta_min            =  -2.6756563484669E+00
(PID.TID 0000.0001) %MON dynstat_theta_mean           =   3.6071501697263E+00
(PID.TID 0000.0001) %MON dynstat_theta_sd             =   4.4536782937579E+00
(PID.TID 0000.0001) %MON dynstat_theta_del2           =   3.5808986683183E-04
(PID.TID 0000.0001) %MON dynstat_salt_max             =   3.9535755157471E+01
(PID.TID 0000.0001) %MON dynstat_salt_min             =   2.6445370356242E+01
(PID.TID 0000.0001) %MON dynstat_salt_mean            =   3.4722202847010E+01
(PID.TID 0000.0001) %MON dynstat_salt_sd              =   3.6514238740219E-01
(PID.TID 0000.0001) %MON dynstat_salt_del2            =   6.8648688141080E-05
(PID.TID 0000.0001) %MON dynstat_sst_max              =   3.1777241945267E+01
(PID.TID 0000.0001) %MON dynstat_sst_min              =  -1.9920241932074E+00
(PID.TID 0000.0001) %MON dynstat_sst_mean             =   1.9176734034904E+01
(PID.TID 0000.0001) %MON dynstat_sst_sd               =   9.5485408387498E+00
(PID.TID 0000.0001) %MON dynstat_sst_del2             =   2.1406043705423E-03
(PID.TID 0000.0001) %MON dynstat_sss_max              =   3.9535755157471E+01
(PID.TID 0000.0001) %MON dynstat_sss_min              =   2.6445370356242E+01
(PID.TID 0000.0001) %MON dynstat_sss_mean             =   3.4861914001001E+01
(PID.TID 0000.0001) %MON dynstat_sss_sd               =   1.0817272015339E+00
(PID.TID 0000.0001) %MON dynstat_sss_del2             =   5.9486137696509E-04
(PID.TID 0000.0001) %MON forcing_qnet_max             =   0.0000000000000E+00
(PID.TID 0000.0001) %MON forcing_qnet_min             =   0.0000000000000E+00
(PID.TID 0000.0001) %MON forcing_qnet_mean            =   0.0000000000000E+00
(PID.TID 0000.0001) %MON forcing_qnet_sd              =   0.0000000000000E+00
(PID.TID 0000.0001) %MON forcing_qnet_del2            =   0.0000000000000E+00
(PID.TID 0000.0001) %MON forcing_qsw_max              =   0.0000000000000E+00
(PID.TID 0000.0001) %MON forcing_qsw_min              =   0.0000000000000E+00
(PID.TID 0000.0001) %MON forcing_qsw_mean             =   0.0000000000000E+00
(PID.TID 0000.0001) %MON forcing_qsw_sd               =   0.0000000000000E+00
(PID.TID 0000.0001) %MON forcing_qsw_del2             =   0.0000000000000E+00
(PID.TID 0000.0001) %MON forcing_empmr_max            =   0.0000000000000E+00
(PID.TID 0000.0001) %MON forcing_empmr_min            =   0.0000000000000E+00
(PID.TID 0000.0001) %MON forcing_empmr_mean           =   0.0000000000000E+00
(PID.TID 0000.0001) %MON forcing_empmr_sd             =   0.0000000000000E+00
(PID.TID 0000.0001) %MON forcing_empmr_del2           =   0.0000000000000E+00
(PID.TID 0000.0001) %MON forcing_fu_max               =   0.0000000000000E+00
(PID.TID 0000.0001) %MON forcing_fu_min               =   0.0000000000000E+00
(PID.TID 0000.0001) %MON forcing_fu_mean              =   0.0000000000000E+00
(PID.TID 0000.0001) %MON forcing_fu_sd                =   0.0000000000000E+00
(PID.TID 0000.0001) %MON forcing_fu_del2              =   0.0000000000000E+00
(PID.TID 0000.0001) %MON forcing_fv_max               =   0.0000000000000E+00
(PID.TID 0000.0001) %MON forcing_fv_min               =   0.0000000000000E+00
(PID.TID 0000.0001) %MON forcing_fv_mean              =   0.0000000000000E+00
(PID.TID 0000.0001) %MON forcing_fv_sd                =   0.0000000000000E+00
(PID.TID 0000.0001) %MON forcing_fv_del2              =   0.0000000000000E+00
(PID.TID 0000.0001) %MON trAdv_CFL_u_max              =   4.6977031251734E-02
(PID.TID 0000.0001) %MON trAdv_CFL_v_max              =   4.6740553269646E-02
(PID.TID 0000.0001) %MON trAdv_CFL_w_max              =   5.9095785836689E-02
(PID.TID 0000.0001) %MON advcfl_uvel_max              =   4.5656657645442E-02
(PID.TID 0000.0001) %MON advcfl_vvel_max              =   4.5163916705058E-02
(PID.TID 0000.0001) %MON advcfl_wvel_max              =   7.0535424844517E-02
(PID.TID 0000.0001) %MON advcfl_W_hf_max              =   7.9352352950082E-02
(PID.TID 0000.0001) %MON pe_b_mean                    =   0.0000000000000E+00
(PID.TID 0000.0001) %MON ke_max                       =   7.7797004628961E-01
(PID.TID 0000.0001) %MON ke_mean                      =   3.1825877375998E-04
(PID.TID 0000.0001) %MON ke_vol                       =   1.3258927395736E+18
(PID.TID 0000.0001) %MON vort_r_min                   =  -1.4195385114217E-05
(PID.TID 0000.0001) %MON vort_r_max                   =   1.8338859670049E-05
(PID.TID 0000.0001) %MON vort_a_mean                  =  -2.1443554596091E-05
(PID.TID 0000.0001) %MON vort_a_sd                    =   7.3250401833601E-05
(PID.TID 0000.0001) %MON vort_p_mean                  =  -2.3136237650023E-05
(PID.TID 0000.0001) %MON vort_p_sd                    =   8.5528208948773E-05
(PID.TID 0000.0001) %MON surfExpan_theta_mean         =  -3.7435462076380E-08
(PID.TID 0000.0001) %MON surfExpan_salt_mean          =   6.4714748146837E-09
(PID.TID 0000.0001) // =======================================================
(PID.TID 0000.0001) // End MONITOR dynamic field statistics
(PID.TID 0000.0001) // =======================================================
(PID.TID 0000.0001) // =======================================================
(PID.TID 0000.0001) // Begin MONITOR ptracer field statistics
(PID.TID 0000.0001) // =======================================================
(PID.TID 0000.0001) %MON trcstat_ptracer01_max        =   2.4112467406497E+03
(PID.TID 0000.0001) %MON trcstat_ptracer01_min        =   1.7244954455675E+03
(PID.TID 0000.0001) %MON trcstat_ptracer01_mean       =   2.2529006581410E+03
(PID.TID 0000.0001) %MON trcstat_ptracer01_sd         =   8.1239133497655E+01
(PID.TID 0000.0001) %MON trcstat_ptracer01_del2       =   8.0575829078536E-03
(PID.TID 0000.0001) %MON trcstat_ptracer02_max        =   4.4817955506295E+01
(PID.TID 0000.0001) %MON trcstat_ptracer02_min        =  -1.5015822578415E-01
(PID.TID 0000.0001) %MON trcstat_ptracer02_mean       =   3.0673142382676E+01
(PID.TID 0000.0001) %MON trcstat_ptracer02_sd         =   9.1045588751524E+00
(PID.TID 0000.0001) %MON trcstat_ptracer02_del2       =   7.0609011032056E-04
(PID.TID 0000.0001) %MON trcstat_ptracer03_max        =   8.5810211928531E+00
(PID.TID 0000.0001) %MON trcstat_ptracer03_min        =  -1.3118083643839E-06
(PID.TID 0000.0001) %MON trcstat_ptracer03_mean       =   2.0000263761971E-02
(PID.TID 0000.0001) %MON trcstat_ptracer03_sd         =   1.4847128641964E-01
(PID.TID 0000.0001) %MON trcstat_ptracer03_del2       =   2.0538783812809E-04
(PID.TID 0000.0001) %MON trcstat_ptracer04_max        =   1.3280848269793E+01
(PID.TID 0000.0001) %MON trcstat_ptracer04_min        =  -1.2596965824881E-07
(PID.TID 0000.0001) %MON trcstat_ptracer04_mean       =   7.3514446069632E-02
(PID.TID 0000.0001) %MON trcstat_ptracer04_sd         =   5.8115162495967E-01
(PID.TID 0000.0001) %MON trcstat_ptracer04_del2       =   3.0276225800446E-04
(PID.TID 0000.0001) %MON trcstat_ptracer05_max        =   3.5973359795404E+00
(PID.TID 0000.0001) %MON trcstat_ptracer05_min        =   8.4468866427769E-02
(PID.TID 0000.0001) %MON trcstat_ptracer05_mean       =   2.1791648533162E+00
(PID.TID 0000.0001) %MON trcstat_ptracer05_sd         =   6.1922781984519E-01
(PID.TID 0000.0001) %MON trcstat_ptracer05_del2       =   3.7846199904941E-05
(PID.TID 0000.0001) %MON trcstat_ptracer06_max        =   1.0589049616172E-03
(PID.TID 0000.0001) %MON trcstat_ptracer06_min        =  -9.6395756053238E-05
(PID.TID 0000.0001) %MON trcstat_ptracer06_mean       =   6.2690328944650E-04
(PID.TID 0000.0001) %MON trcstat_ptracer06_sd         =   1.9423174614997E-04
(PID.TID 0000.0001) %MON trcstat_ptracer06_del2       =   8.0546142728142E-08
(PID.TID 0000.0001) %MON trcstat_ptracer07_max        =   2.7520642180757E+02
(PID.TID 0000.0001) %MON trcstat_ptracer07_min        =   1.1356974462823E+00
(PID.TID 0000.0001) %MON trcstat_ptracer07_mean       =   9.0930631835519E+01
(PID.TID 0000.0001) %MON trcstat_ptracer07_sd         =   5.1624252059309E+01
(PID.TID 0000.0001) %MON trcstat_ptracer07_del2       =   1.3864768922232E-03
(PID.TID 0000.0001) %MON trcstat_ptracer08_max        =   2.7664301770175E+02
(PID.TID 0000.0001) %MON trcstat_ptracer08_min        =   2.9760304837354E-08
(PID.TID 0000.0001) %MON trcstat_ptracer08_mean       =   1.5376942669890E-01
(PID.TID 0000.0001) %MON trcstat_ptracer08_sd         =   1.0140252550364E+00
(PID.TID 0000.0001) %MON trcstat_ptracer08_del2       =   1.1549591291995E-03
(PID.TID 0000.0001) %MON trcstat_ptracer09_max        =   3.9126223163360E+01
(PID.TID 0000.0001) %MON trcstat_ptracer09_min        =  -1.5579796058325E-07
(PID.TID 0000.0001) %MON trcstat_ptracer09_mean       =   1.8941722854120E-02
(PID.TID 0000.0001) %MON trcstat_ptracer09_sd         =   1.1656088399882E-01
(PID.TID 0000.0001) %MON trcstat_ptracer09_del2       =   9.5319577372041E-05
(PID.TID 0000.0001) %MON trcstat_ptracer10_max        =   2.3054216938975E+00
(PID.TID 0000.0001) %MON trcstat_ptracer10_min        =   9.6365005708481E-12
(PID.TID 0000.0001) %MON trcstat_ptracer10_mean       =   2.0656576200865E-04
(PID.TID 0000.0001) %MON trcstat_ptracer10_sd         =   3.5920654947327E-03
(PID.TID 0000.0001) %MON trcstat_ptracer10_del2       =   1.0212524714990E-06
(PID.TID 0000.0001) %MON trcstat_ptracer11_max        =   7.0683871083488E-03
(PID.TID 0000.0001) %MON trcstat_ptracer11_min        =  -5.9976865278968E-11
(PID.TID 0000.0001) %MON trcstat_ptracer11_mean       =   8.9866678683899E-06
(PID.TID 0000.0001) %MON trcstat_ptracer11_sd         =   4.4047946208427E-05
(PID.TID 0000.0001) %MON trcstat_ptracer11_del2       =   4.3398144330974E-08
(PID.TID 0000.0001) %MON trcstat_ptracer12_max        =   1.0477741486191E+03
(PID.TID 0000.0001) %MON trcstat_ptracer12_min        =  -1.4487915421058E-09
(PID.TID 0000.0001) %MON trcstat_ptracer12_mean       =   2.3784027446397E-02
(PID.TID 0000.0001) %MON trcstat_ptracer12_sd         =   1.6018624952511E+00
(PID.TID 0000.0001) %MON trcstat_ptracer12_del2       =   1.2328591554452E-04
(PID.TID 0000.0001) %MON trcstat_ptracer13_max        =   1.4830090167460E+02
(PID.TID 0000.0001) %MON trcstat_ptracer13_min        =   7.8955950786318E-11
(PID.TID 0000.0001) %MON trcstat_ptracer13_mean       =   3.0620850527399E-03
(PID.TID 0000.0001) %MON trcstat_ptracer13_sd         =   2.2787584750610E-01
(PID.TID 0000.0001) %MON trcstat_ptracer13_del2       =   1.4795254126932E-05
(PID.TID 0000.0001) %MON trcstat_ptracer14_max        =   8.5846816062791E+00
(PID.TID 0000.0001) %MON trcstat_ptracer14_min        =  -2.3764744538187E-12
(PID.TID 0000.0001) %MON trcstat_ptracer14_mean       =   5.7185103673540E-05
(PID.TID 0000.0001) %MON trcstat_ptracer14_sd         =   1.2929079955924E-02
(PID.TID 0000.0001) %MON trcstat_ptracer14_del2       =   1.9291306469804E-07
(PID.TID 0000.0001) %MON trcstat_ptracer15_max        =   1.0526959513871E-02
(PID.TID 0000.0001) %MON trcstat_ptracer15_min        =  -2.2919393536480E-12
(PID.TID 0000.0001) %MON trcstat_ptracer15_mean       =   1.2262688954362E-06
(PID.TID 0000.0001) %MON trcstat_ptracer15_sd         =   1.8502659671674E-05
(PID.TID 0000.0001) %MON trcstat_ptracer15_del2       =   7.7637363795493E-09
(PID.TID 0000.0001) %MON trcstat_ptracer16_max        =   2.5129542975256E+01
(PID.TID 0000.0001) %MON trcstat_ptracer16_min        =  -2.2462573268081E-08
(PID.TID 0000.0001) %MON trcstat_ptracer16_mean       =   1.4888900368924E-02
(PID.TID 0000.0001) %MON trcstat_ptracer16_sd         =   1.1613339832413E-01
(PID.TID 0000.0001) %MON trcstat_ptracer16_del2       =   1.0100483142896E-05
(PID.TID 0000.0001) %MON trcstat_ptracer17_max        =   1.6451307645236E+01
(PID.TID 0000.0001) %MON trcstat_ptracer17_min        =  -9.1529585559962E-10
(PID.TID 0000.0001) %MON trcstat_ptracer17_mean       =   6.2394651971360E-03
(PID.TID 0000.0001) %MON trcstat_ptracer17_sd         =   5.6839288998437E-02
(PID.TID 0000.0001) %MON trcstat_ptracer17_del2       =   1.3444463425145E-05
(PID.TID 0000.0001) %MON trcstat_ptracer18_max        =   2.5679972394581E+03
(PID.TID 0000.0001) %MON trcstat_ptracer18_min        =   2.0135023745426E+03
(PID.TID 0000.0001) %MON trcstat_ptracer18_mean       =   2.3641767566521E+03
(PID.TID 0000.0001) %MON trcstat_ptracer18_sd         =   4.2025515438067E+01
(PID.TID 0000.0001) %MON trcstat_ptracer18_del2       =   4.8714527414192E-03
(PID.TID 0000.0001) %MON trcstat_ptracer19_max        =   3.8539600576412E+02
(PID.TID 0000.0001) %MON trcstat_ptracer19_min        =   2.6756893973612E-05
(PID.TID 0000.0001) %MON trcstat_ptracer19_mean       =   2.0397579260631E+01
(PID.TID 0000.0001) %MON trcstat_ptracer19_sd         =   5.4785274272967E+01
(PID.TID 0000.0001) %MON trcstat_ptracer19_del2       =   1.3221304104766E-02
(PID.TID 0000.0001) %MON trcstat_ptracer20_max        =   9.8841627010635E-02
(PID.TID 0000.0001) %MON trcstat_ptracer20_min        =  -4.3293684070877E-11
(PID.TID 0000.0001) %MON trcstat_ptracer20_mean       =   4.2685003125402E-05
(PID.TID 0000.0001) %MON trcstat_ptracer20_sd         =   1.6129617328415E-04
(PID.TID 0000.0001) %MON trcstat_ptracer20_del2       =   2.0709201844216E-08
(PID.TID 0000.0001) %MON trcstat_ptracer21_max        =   6.5133186644655E+01
(PID.TID 0000.0001) %MON trcstat_ptracer21_min        =  -1.7131719668761E-05
(PID.TID 0000.0001) %MON trcstat_ptracer21_mean       =   1.1860634253601E-01
(PID.TID 0000.0001) %MON trcstat_ptracer21_sd         =   9.7579585477654E-01
(PID.TID 0000.0001) %MON trcstat_ptracer21_del2       =   1.2605859709507E-03
(PID.TID 0000.0001) %MON trcstat_ptracer22_max        =   2.1981937436944E+01
(PID.TID 0000.0001) %MON trcstat_ptracer22_min        =  -7.6101343690840E-08
(PID.TID 0000.0001) %MON trcstat_ptracer22_mean       =   2.3736180083246E-02
(PID.TID 0000.0001) %MON trcstat_ptracer22_sd         =   2.3885633809077E-01
(PID.TID 0000.0001) %MON trcstat_ptracer22_del2       =   4.4881223988983E-04
(PID.TID 0000.0001) %MON trcstat_ptracer23_max        =   4.0301983191929E-11
(PID.TID 0000.0001) %MON trcstat_ptracer23_min        =  -9.9905701787901E-20
(PID.TID 0000.0001) %MON trcstat_ptracer23_mean       =   1.4745371636935E-13
(PID.TID 0000.0001) %MON trcstat_ptracer23_sd         =   5.4467357889871E-13
(PID.TID 0000.0001) %MON trcstat_ptracer23_del2       =   1.7979136280054E-16
(PID.TID 0000.0001) %MON trcstat_ptracer24_max        =   4.0301983191929E-11
(PID.TID 0000.0001) %MON trcstat_ptracer24_min        =  -9.9905701787901E-20
(PID.TID 0000.0001) %MON trcstat_ptracer24_mean       =   1.4745371636935E-13
(PID.TID 0000.0001) %MON trcstat_ptracer24_sd         =   5.4467357889871E-13
(PID.TID 0000.0001) %MON trcstat_ptracer24_del2       =   1.7979136280054E-16
(PID.TID 0000.0001) %MON trcstat_ptracer25_max        =   7.0948091357789E+00
(PID.TID 0000.0001) %MON trcstat_ptracer25_min        =  -3.7015315142934E-06
(PID.TID 0000.0001) %MON trcstat_ptracer25_mean       =   1.4331439181430E-02
(PID.TID 0000.0001) %MON trcstat_ptracer25_sd         =   1.0541629172834E-01
(PID.TID 0000.0001) %MON trcstat_ptracer25_del2       =   1.4046939984323E-04
(PID.TID 0000.0001) %MON trcstat_ptracer26_max        =   3.7551659250909E+00
(PID.TID 0000.0001) %MON trcstat_ptracer26_min        =  -7.2730426044212E-09
(PID.TID 0000.0001) %MON trcstat_ptracer26_mean       =   3.3362216279390E-03
(PID.TID 0000.0001) %MON trcstat_ptracer26_sd         =   3.3448068091993E-02
(PID.TID 0000.0001) %MON trcstat_ptracer26_del2       =   6.6342407700695E-05
(PID.TID 0000.0001) %MON trcstat_ptracer27_max        =   6.0833180830606E-12
(PID.TID 0000.0001) %MON trcstat_ptracer27_min        =  -1.5080105980442E-20
(PID.TID 0000.0001) %MON trcstat_ptracer27_mean       =   2.2257164735494E-14
(PID.TID 0000.0001) %MON trcstat_ptracer27_sd         =   8.2214879828346E-14
(PID.TID 0000.0001) %MON trcstat_ptracer27_del2       =   2.7138318912515E-17
(PID.TID 0000.0001) %MON trcstat_ptracer28_max        =   6.0833180830606E-12
(PID.TID 0000.0001) %MON trcstat_ptracer28_min        =  -1.5080105980442E-20
(PID.TID 0000.0001) %MON trcstat_ptracer28_mean       =   2.2257164735494E-14
(PID.TID 0000.0001) %MON trcstat_ptracer28_sd         =   8.2214879828346E-14
(PID.TID 0000.0001) %MON trcstat_ptracer28_del2       =   2.7138318912515E-17
(PID.TID 0000.0001) %MON trcstat_ptracer29_max        =   8.2985466230606E-02
(PID.TID 0000.0001) %MON trcstat_ptracer29_min        =  -3.6708104752703E-08
(PID.TID 0000.0001) %MON trcstat_ptracer29_mean       =   1.5477300095800E-04
(PID.TID 0000.0001) %MON trcstat_ptracer29_sd         =   1.1571043801874E-03
(PID.TID 0000.0001) %MON trcstat_ptracer29_del2       =   1.5610171102609E-06
(PID.TID 0000.0001) %MON trcstat_ptracer30_max        =   5.3118553453913E-02
(PID.TID 0000.0001) %MON trcstat_ptracer30_min        =  -9.6266346420557E-11
(PID.TID 0000.0001) %MON trcstat_ptracer30_mean       =   3.3620703620751E-05
(PID.TID 0000.0001) %MON trcstat_ptracer30_sd         =   3.4701745186503E-04
(PID.TID 0000.0001) %MON trcstat_ptracer30_del2       =   8.9777909466348E-07
(PID.TID 0000.0001) %MON trcstat_ptracer31_max        =   2.3762961261955E-14
(PID.TID 0000.0001) %MON trcstat_ptracer31_min        =  -5.8906663986100E-23
(PID.TID 0000.0001) %MON trcstat_ptracer31_mean       =   8.6942049748022E-17
(PID.TID 0000.0001) %MON trcstat_ptracer31_sd         =   3.2115187432948E-16
(PID.TID 0000.0001) %MON trcstat_ptracer31_del2       =   1.0600905825201E-19
(PID.TID 0000.0001) %MON trcstat_ptracer32_max        =   2.3762961261955E-14
(PID.TID 0000.0001) %MON trcstat_ptracer32_min        =  -5.8906663986100E-23
(PID.TID 0000.0001) %MON trcstat_ptracer32_mean       =   8.6942049748022E-17
(PID.TID 0000.0001) %MON trcstat_ptracer32_sd         =   3.2115187432948E-16
(PID.TID 0000.0001) %MON trcstat_ptracer32_del2       =   1.0600905825201E-19
(PID.TID 0000.0001) %MON trcstat_ptracer33_max        =   2.8798035740474E-03
(PID.TID 0000.0001) %MON trcstat_ptracer33_min        =  -4.3326958600449E-09
(PID.TID 0000.0001) %MON trcstat_ptracer33_mean       =   6.7992675514399E-06
(PID.TID 0000.0001) %MON trcstat_ptracer33_sd         =   4.1033795238344E-05
(PID.TID 0000.0001) %MON trcstat_ptracer33_del2       =   4.8523530118706E-08
(PID.TID 0000.0001) %MON trcstat_ptracer34_max        =   1.0393060664629E-03
(PID.TID 0000.0001) %MON trcstat_ptracer34_min        =  -2.1814102546033E-12
(PID.TID 0000.0001) %MON trcstat_ptracer34_mean       =   1.4945961793312E-06
(PID.TID 0000.0001) %MON trcstat_ptracer34_sd         =   1.0761716597997E-05
(PID.TID 0000.0001) %MON trcstat_ptracer34_del2       =   1.7757438540434E-08
(PID.TID 0000.0001) %MON trcstat_ptracer35_max        =   4.0301983778016E-14
(PID.TID 0000.0001) %MON trcstat_ptracer35_min        =  -9.9905701881147E-23
(PID.TID 0000.0001) %MON trcstat_ptracer35_mean       =   1.4745371636652E-16
(PID.TID 0000.0001) %MON trcstat_ptracer35_sd         =   5.4467357886702E-16
(PID.TID 0000.0001) %MON trcstat_ptracer35_del2       =   1.7979136275355E-19
(PID.TID 0000.0001) %MON trcstat_ptracer36_max        =   4.0301983778016E-14
(PID.TID 0000.0001) %MON trcstat_ptracer36_min        =  -9.9905701881147E-23
(PID.TID 0000.0001) %MON trcstat_ptracer36_mean       =   1.4745371636652E-16
(PID.TID 0000.0001) %MON trcstat_ptracer36_sd         =   5.4467357886702E-16
(PID.TID 0000.0001) %MON trcstat_ptracer36_del2       =   1.7979136275355E-19
(PID.TID 0000.0001) // =======================================================
(PID.TID 0000.0001) // End MONITOR ptracer field statistics
(PID.TID 0000.0001) // =======================================================
 Computing Diagnostic #    267  TRAC01       Counter:       1   Parms: SMR     MR      
 Computing Diagnostic #    282  TRAC02       Counter:       1   Parms: SMR     MR      
 Computing Diagnostic #    297  TRAC03       Counter:       1   Parms: SMR     MR      
 Computing Diagnostic #    312  TRAC04       Counter:       1   Parms: SMR     MR      
 Computing Diagnostic #    327  TRAC05       Counter:       1   Parms: SMR     MR      
 Computing Diagnostic #    342  TRAC06       Counter:       1   Parms: SMR     MR      
 Computing Diagnostic #    357  TRAC07       Counter:       1   Parms: SMR     MR      
 Computing Diagnostic #    372  TRAC08       Counter:       1   Parms: SMR     MR      
 Computing Diagnostic #    387  TRAC09       Counter:       1   Parms: SMR     MR      
 Computing Diagnostic #    402  TRAC10       Counter:       1   Parms: SMR     MR      
 Computing Diagnostic #    417  TRAC11       Counter:       1   Parms: SMR     MR      
 Computing Diagnostic #    432  TRAC12       Counter:       1   Parms: SMR     MR      
 Computing Diagnostic #    447  TRAC13       Counter:       1   Parms: SMR     MR      
 Computing Diagnostic #    462  TRAC14       Counter:       1   Parms: SMR     MR      
 Computing Diagnostic #    477  TRAC15       Counter:       1   Parms: SMR     MR      
 Computing Diagnostic #    492  TRAC16       Counter:       1   Parms: SMR     MR      
 Computing Diagnostic #    507  TRAC17       Counter:       1   Parms: SMR     MR      
 Computing Diagnostic #    522  TRAC18       Counter:       1   Parms: SMR     MR      
 Computing Diagnostic #    537  TRAC19       Counter:       1   Parms: SMR     MR      
 Computing Diagnostic #    552  TRAC20       Counter:       1   Parms: SMR     MR      
 Computing Diagnostic #    567  TRAC21       Counter:       1   Parms: SMR     MR      
 Computing Diagnostic #    582  TRAC22       Counter:       1   Parms: SMR     MR      
 Computing Diagnostic #    597  TRAC23       Counter:       1   Parms: SMR     MR      
 Computing Diagnostic #    612  TRAC24       Counter:       1   Parms: SMR     MR      
 Computing Diagnostic #    627  TRAC25       Counter:       1   Parms: SMR     MR      
 Computing Diagnostic #    642  TRAC26       Counter:       1   Parms: SMR     MR      
 Computing Diagnostic #    657  TRAC27       Counter:       1   Parms: SMR     MR      
 Computing Diagnostic #    672  TRAC28       Counter:       1   Parms: SMR     MR      
 Computing Diagnostic #    687  TRAC29       Counter:       1   Parms: SMR     MR      
 Computing Diagnostic #    702  TRAC30       Counter:       1   Parms: SMR     MR      
 Computing Diagnostic #    717  TRAC31       Counter:       1   Parms: SMR     MR      
 Computing Diagnostic #    732  TRAC32       Counter:       1   Parms: SMR     MR      
 Computing Diagnostic #    747  TRAC33       Counter:       1   Parms: SMR     MR      
 Computing Diagnostic #    762  TRAC34       Counter:       1   Parms: SMR     MR      
 Computing Diagnostic #    777  TRAC35       Counter:       1   Parms: SMR     MR      
 Computing Diagnostic #    792  TRAC36       Counter:       1   Parms: SMR     MR      
 Computing Diagnostic #   1020  PAR          Counter:       1   Parms: SMRP    MR      
 Computing Diagnostic #    810  PP           Counter:       1   Parms: SMRP    MR      
 Computing Diagnostic #    811  Nfix         Counter:       1   Parms: SMRP    MR      
 Computing Diagnostic #    812  Denit        Counter:       1   Parms: SMRP    MR      
 Computing Diagnostic #   1143  pH           Counter:       1   Parms: SMR     MR      
 Computing Diagnostic #   1144  pCO2         Counter:       1   Parms: SMRP    MR      
 Computing Diagnostic #   1108  PC0001       Counter:       1   Parms: SMRP    MR      
 Computing Diagnostic #    814  PChl0001     Counter:       1   Parms: SM P    MR      
 Computing Diagnostic #    815  VN0001       Counter:       1   Parms: SM P    MR      
 Computing Diagnostic #    816  MODE0001     Counter:       1   Parms: SM P    MR      
 Computing Diagnostic #    817  Fe_C0001     Counter:       1   Parms: SM P    MR      
 Computing Diagnostic #    818  exQc0001     Counter:       1   Parms: SM P    MR      
 Computing Diagnostic #    819  PCg0001      Counter:       1   Parms: SM P    MR      
 Computing Diagnostic #    820  CChl0001     Counter:       1   Parms: SM P    MR      
 Computing Diagnostic #    821  NChl0001     Counter:       1   Parms: SM P    MR      
 Computing Diagnostic #    822  NPho0001     Counter:       1   Parms: SM P    MR      
 Computing Diagnostic #    823  NSyn0001     Counter:       1   Parms: SM P    MR      
 Computing Diagnostic #    824  NPrn0001     Counter:       1   Parms: SM P    MR      
 Computing Diagnostic #    825  NRNA0001     Counter:       1   Parms: SM P    MR      
 Computing Diagnostic #    826  NDNA0001     Counter:       1   Parms: SM P    MR      
 Computing Diagnostic #    827  NSTO0001     Counter:       1   Parms: SM P    MR      
 Computing Diagnostic #    828  NEXC0001     Counter:       1   Parms: SM P    MR      
 Computing Diagnostic #    829  PRNA0001     Counter:       1   Parms: SM P    MR      
 Computing Diagnostic #    830  PDNA0001     Counter:       1   Parms: SM P    MR      
 Computing Diagnostic #    831  PTHY0001     Counter:       1   Parms: SM P    MR      
 Computing Diagnostic #    832  PCON0001     Counter:       1   Parms: SM P    MR      
 Computing Diagnostic #    833  PSTO0001     Counter:       1   Parms: SM P    MR      
 Computing Diagnostic #    834  PEXC0001     Counter:       1   Parms: SM P    MR      
 Computing Diagnostic #    835  FPHO0001     Counter:       1   Parms: SM P    MR      
 Computing Diagnostic #    836  FSTO0001     Counter:       1   Parms: SM P    MR      
 Computing Diagnostic #    837  FEXC0001     Counter:       1   Parms: SM P    MR      
 Computing Diagnostic #    844  CChl0002     Counter:       1   Parms: SM P    MR      
 Computing Diagnostic #    845  NChl0002     Counter:       1   Parms: SM P    MR      
 Computing Diagnostic #    846  NPho0002     Counter:       1   Parms: SM P    MR      
 Computing Diagnostic #    847  NSyn0002     Counter:       1   Parms: SM P    MR      
 Computing Diagnostic #    848  NPrn0002     Counter:       1   Parms: SM P    MR      
 Computing Diagnostic #    849  NRNA0002     Counter:       1   Parms: SM P    MR      
 Computing Diagnostic #    850  NDNA0002     Counter:       1   Parms: SM P    MR      
 Computing Diagnostic #    851  NSTO0002     Counter:       1   Parms: SM P    MR      
 Computing Diagnostic #    852  NEXC0002     Counter:       1   Parms: SM P    MR      
 Computing Diagnostic #    853  PRNA0002     Counter:       1   Parms: SM P    MR      
 Computing Diagnostic #    854  PDNA0002     Counter:       1   Parms: SM P    MR      
 Computing Diagnostic #    855  PTHY0002     Counter:       1   Parms: SM P    MR      
 Computing Diagnostic #    856  PCON0002     Counter:       1   Parms: SM P    MR      
 Computing Diagnostic #    857  PSTO0002     Counter:       1   Parms: SM P    MR      
 Computing Diagnostic #    858  PEXC0002     Counter:       1   Parms: SM P    MR      
 Computing Diagnostic #    859  FPHO0002     Counter:       1   Parms: SM P    MR      
 Computing Diagnostic #    860  FSTO0002     Counter:       1   Parms: SM P    MR      
 Computing Diagnostic #    861  FEXC0002     Counter:       1   Parms: SM P    MR      
 Computing Diagnostic #   1115  PC0002       Counter:       1   Parms: SMRP    MR      
 Computing Diagnostic #    838  PChl0002     Counter:       1   Parms: SM P    MR      
 Computing Diagnostic #    839  VN0002       Counter:       1   Parms: SM P    MR      
 Computing Diagnostic #    840  MODE0002     Counter:       1   Parms: SM P    MR      
 Computing Diagnostic #    841  Fe_C0002     Counter:       1   Parms: SM P    MR      
 Computing Diagnostic #    842  exQc0002     Counter:       1   Parms: SM P    MR      
 Computing Diagnostic #    843  PCg0002      Counter:       1   Parms: SM P    MR      
 Computing Diagnostic #   1172  GC_Tr01      Counter:       1   Parms: SMR     MR      
 Computing Diagnostic #   1173  GC_Tr02      Counter:       1   Parms: SMR     MR      
 Computing Diagnostic #   1174  GC_Tr03      Counter:       1   Parms: SMR     MR      
 Computing Diagnostic #   1175  GC_Tr04      Counter:       1   Parms: SMR     MR      
 Computing Diagnostic #   1176  GC_Tr05      Counter:       1   Parms: SMR     MR      
 Computing Diagnostic #   1177  GC_Tr06      Counter:       1   Parms: SMR     MR      
 Computing Diagnostic #   1178  GC_Tr07      Counter:       1   Parms: SMR     MR      
 Computing Diagnostic #   1179  GC_Tr08      Counter:       1   Parms: SMR     MR      
 Computing Diagnostic #   1180  GC_Tr09      Counter:       1   Parms: SMR     MR      
 Computing Diagnostic #   1181  GC_Tr10      Counter:       1   Parms: SMR     MR      
 Computing Diagnostic #   1182  GC_Tr11      Counter:       1   Parms: SMR     MR      
 Computing Diagnostic #   1183  GC_Tr12      Counter:       1   Parms: SMR     MR      
 Computing Diagnostic #   1184  GC_Tr13      Counter:       1   Parms: SMR     MR      
 Computing Diagnostic #   1185  GC_Tr14      Counter:       1   Parms: SMR     MR      
 Computing Diagnostic #   1186  GC_Tr15      Counter:       1   Parms: SMR     MR      
 Computing Diagnostic #   1187  GC_Tr16      Counter:       1   Parms: SMR     MR      
 Computing Diagnostic #   1188  GC_Tr17      Counter:       1   Parms: SMR     MR      
 Computing Diagnostic #   1189  GC_Tr18      Counter:       1   Parms: SMR     MR      
 Computing Diagnostic #   1190  GC_Tr19      Counter:       1   Parms: SMR     MR      
 Computing Diagnostic #   1191  GC_Tr20      Counter:       1   Parms: SMR     MR      
 Computing Diagnostic #   1192  GC_Tr21      Counter:       1   Parms: SMR     MR      
 Computing Diagnostic #   1193  GC_Tr22      Counter:       1   Parms: SMR     MR      
 Computing Diagnostic #   1194  GC_Tr23      Counter:       1   Parms: SMR     MR      
 Computing Diagnostic #   1195  GC_Tr24      Counter:       1   Parms: SMR     MR      
 Computing Diagnostic #   1196  GC_Tr25      Counter:       1   Parms: SMR     MR      
 Computing Diagnostic #   1197  GC_Tr26      Counter:       1   Parms: SMR     MR      
 Computing Diagnostic #   1198  GC_Tr27      Counter:       1   Parms: SMR     MR      
 Computing Diagnostic #   1199  GC_Tr28      Counter:       1   Parms: SMR     MR      
 Computing Diagnostic #   1200  GC_Tr29      Counter:       1   Parms: SMR     MR      
 Computing Diagnostic #   1201  GC_Tr30      Counter:       1   Parms: SMR     MR      
 Computing Diagnostic #   1202  GC_Tr31      Counter:       1   Parms: SMR     MR      
 Computing Diagnostic #   1203  GC_Tr32      Counter:       1   Parms: SMR     MR      
 Computing Diagnostic #   1204  GC_Tr33      Counter:       1   Parms: SMR     MR      
 Computing Diagnostic #   1205  GC_Tr34      Counter:       1   Parms: SMR     MR      
 Computing Diagnostic #   1206  GC_Tr35      Counter:       1   Parms: SMR     MR      
 Computing Diagnostic #   1207  GC_Tr36      Counter:       1   Parms: SMR     MR      
(PID.TID 0000.0001) // =======================================================
(PID.TID 0000.0001) // Begin MONITOR EXF statistics
(PID.TID 0000.0001) // =======================================================
(PID.TID 0000.0001) %MON exf_tsnumber                 =                     1
(PID.TID 0000.0001) %MON exf_time_sec                 =   3.6000000000000E+03
(PID.TID 0000.0001) %MON exf_ustress_max              =   0.0000000000000E+00
(PID.TID 0000.0001) %MON exf_ustress_min              =   0.0000000000000E+00
(PID.TID 0000.0001) %MON exf_ustress_mean             =   0.0000000000000E+00
(PID.TID 0000.0001) %MON exf_ustress_sd               =   0.0000000000000E+00
(PID.TID 0000.0001) %MON exf_ustress_del2             =   0.0000000000000E+00
(PID.TID 0000.0001) %MON exf_vstress_max              =   0.0000000000000E+00
(PID.TID 0000.0001) %MON exf_vstress_min              =   0.0000000000000E+00
(PID.TID 0000.0001) %MON exf_vstress_mean             =   0.0000000000000E+00
(PID.TID 0000.0001) %MON exf_vstress_sd               =   0.0000000000000E+00
(PID.TID 0000.0001) %MON exf_vstress_del2             =   0.0000000000000E+00
(PID.TID 0000.0001) %MON exf_hflux_max                =   0.0000000000000E+00
(PID.TID 0000.0001) %MON exf_hflux_min                =   0.0000000000000E+00
(PID.TID 0000.0001) %MON exf_hflux_mean               =   0.0000000000000E+00
(PID.TID 0000.0001) %MON exf_hflux_sd                 =   0.0000000000000E+00
(PID.TID 0000.0001) %MON exf_hflux_del2               =   0.0000000000000E+00
(PID.TID 0000.0001) %MON exf_sflux_max                =   0.0000000000000E+00
(PID.TID 0000.0001) %MON exf_sflux_min                =   0.0000000000000E+00
(PID.TID 0000.0001) %MON exf_sflux_mean               =   0.0000000000000E+00
(PID.TID 0000.0001) %MON exf_sflux_sd                 =   0.0000000000000E+00
(PID.TID 0000.0001) %MON exf_sflux_del2               =   0.0000000000000E+00
(PID.TID 0000.0001) %MON exf_uwind_max                =   0.0000000000000E+00
(PID.TID 0000.0001) %MON exf_uwind_min                =   0.0000000000000E+00
(PID.TID 0000.0001) %MON exf_uwind_mean               =   0.0000000000000E+00
(PID.TID 0000.0001) %MON exf_uwind_sd                 =   0.0000000000000E+00
(PID.TID 0000.0001) %MON exf_uwind_del2               =   0.0000000000000E+00
(PID.TID 0000.0001) %MON exf_vwind_max                =   0.0000000000000E+00
(PID.TID 0000.0001) %MON exf_vwind_min                =   0.0000000000000E+00
(PID.TID 0000.0001) %MON exf_vwind_mean               =   0.0000000000000E+00
(PID.TID 0000.0001) %MON exf_vwind_sd                 =   0.0000000000000E+00
(PID.TID 0000.0001) %MON exf_vwind_del2               =   0.0000000000000E+00
(PID.TID 0000.0001) %MON exf_wspeed_max               =   0.0000000000000E+00
(PID.TID 0000.0001) %MON exf_wspeed_min               =   0.0000000000000E+00
(PID.TID 0000.0001) %MON exf_wspeed_mean              =   0.0000000000000E+00
(PID.TID 0000.0001) %MON exf_wspeed_sd                =   0.0000000000000E+00
(PID.TID 0000.0001) %MON exf_wspeed_del2              =   0.0000000000000E+00
(PID.TID 0000.0001) %MON exf_evap_max                 =   0.0000000000000E+00
(PID.TID 0000.0001) %MON exf_evap_min                 =   0.0000000000000E+00
(PID.TID 0000.0001) %MON exf_evap_mean                =   0.0000000000000E+00
(PID.TID 0000.0001) %MON exf_evap_sd                  =   0.0000000000000E+00
(PID.TID 0000.0001) %MON exf_evap_del2                =   0.0000000000000E+00
(PID.TID 0000.0001) // =======================================================
(PID.TID 0000.0001) // End MONITOR EXF statistics
(PID.TID 0000.0001) // =======================================================
(PID.TID 0000.0001) // =======================================================
(PID.TID 0000.0001) // Begin MONITOR RADTRANS statistics
(PID.TID 0000.0001) // =======================================================
(PID.TID 0000.0001) %MON RT_tsnumber                  =                     1
(PID.TID 0000.0001) %MON RT_time_sec                  =   3.6000000000000E+03
(PID.TID 0000.0001) %MON RT_Ed001_max                 =   2.7641757004791E+00
(PID.TID 0000.0001) %MON RT_Ed001_min                 =   2.5806056383445E-37
(PID.TID 0000.0001) %MON RT_Ed001_mean                =   9.5084907176883E-01
(PID.TID 0000.0001) %MON RT_Ed001_sd                  =   6.8296743749913E-01
(PID.TID 0000.0001) %MON RT_Ed001_del2                =   2.4693815971230E-04
(PID.TID 0000.0001) %MON RT_Ed002_max                 =   7.1672548876868E+00
(PID.TID 0000.0001) %MON RT_Ed002_min                 =   5.1612112766889E-37
(PID.TID 0000.0001) %MON RT_Ed002_mean                =   2.4687031619856E+00
(PID.TID 0000.0001) %MON RT_Ed002_sd                  =   1.7471304563280E+00
(PID.TID 0000.0001) %MON RT_Ed002_del2                =   6.2694187373100E-04
(PID.TID 0000.0001) %MON RT_Ed003_max                 =   8.7436545716392E+00
(PID.TID 0000.0001) %MON RT_Ed003_min                 =   5.1612112766889E-37
(PID.TID 0000.0001) %MON RT_Ed003_mean                =   2.9977299364286E+00
(PID.TID 0000.0001) %MON RT_Ed003_sd                  =   2.1075185471977E+00
(PID.TID 0000.0001) %MON RT_Ed003_del2                =   7.6405644575363E-04
(PID.TID 0000.0001) %MON RT_Ed004_max                 =   9.2564012805621E+00
(PID.TID 0000.0001) %MON RT_Ed004_min                 =   5.1612112766889E-37
(PID.TID 0000.0001) %MON RT_Ed004_mean                =   3.1838819218923E+00
(PID.TID 0000.0001) %MON RT_Ed004_sd                  =   2.2161531614022E+00
(PID.TID 0000.0001) %MON RT_Ed004_del2                =   8.0127444378292E-04
(PID.TID 0000.0001) %MON RT_Ed005_max                 =   9.3308894806438E+00
(PID.TID 0000.0001) %MON RT_Ed005_min                 =   5.1612119474438E-37
(PID.TID 0000.0001) %MON RT_Ed005_mean                =   3.2173774527614E+00
(PID.TID 0000.0001) %MON RT_Ed005_sd                  =   2.2193522651494E+00
(PID.TID 0000.0001) %MON RT_Ed005_del2                =   7.9678709204443E-04
(PID.TID 0000.0001) %MON RT_Ed006_max                 =   9.1622435953882E+00
(PID.TID 0000.0001) %MON RT_Ed006_min                 =   5.1612121710287E-37
(PID.TID 0000.0001) %MON RT_Ed006_mean                =   3.1756514930967E+00
(PID.TID 0000.0001) %MON RT_Ed006_sd                  =   2.1768895719027E+00
(PID.TID 0000.0001) %MON RT_Ed006_del2                =   7.8060451569828E-04
(PID.TID 0000.0001) %MON RT_Ed007_max                 =   9.2914570914374E+00
(PID.TID 0000.0001) %MON RT_Ed007_min                 =   5.1612123946137E-37
(PID.TID 0000.0001) %MON RT_Ed007_mean                =   3.2276109928741E+00
(PID.TID 0000.0001) %MON RT_Ed007_sd                  =   2.2030168236179E+00
(PID.TID 0000.0001) %MON RT_Ed007_del2                =   7.8811100636832E-04
(PID.TID 0000.0001) %MON RT_Ed008_max                 =   9.1973856343163E+00
(PID.TID 0000.0001) %MON RT_Ed008_min                 =   5.1612132889535E-37
(PID.TID 0000.0001) %MON RT_Ed008_mean                =   3.1811489320528E+00
(PID.TID 0000.0001) %MON RT_Ed008_sd                  =   2.1652798810718E+00
(PID.TID 0000.0001) %MON RT_Ed008_del2                =   7.7281678620600E-04
(PID.TID 0000.0001) %MON RT_Ed009_max                 =   8.7399132596122E+00
(PID.TID 0000.0001) %MON RT_Ed009_min                 =   5.1612179842376E-37
(PID.TID 0000.0001) %MON RT_Ed009_mean                =   3.0230964458296E+00
(PID.TID 0000.0001) %MON RT_Ed009_sd                  =   2.0482141710599E+00
(PID.TID 0000.0001) %MON RT_Ed009_del2                =   7.3175295714157E-04
(PID.TID 0000.0001) %MON RT_Ed010_max                 =   8.6727135539055E+00
(PID.TID 0000.0001) %MON RT_Ed010_min                 =   5.1612217851818E-37
(PID.TID 0000.0001) %MON RT_Ed010_mean                =   3.0167929636158E+00
(PID.TID 0000.0001) %MON RT_Ed010_sd                  =   2.0390102333852E+00
(PID.TID 0000.0001) %MON RT_Ed010_del2                =   7.2745123396151E-04
(PID.TID 0000.0001) %MON RT_Ed011_max                 =   8.2036830233203E+00
(PID.TID 0000.0001) %MON RT_Ed011_min                 =   5.1612253625411E-37
(PID.TID 0000.0001) %MON RT_Ed011_mean                =   2.8456358003486E+00
(PID.TID 0000.0001) %MON RT_Ed011_sd                  =   1.9150289023397E+00
(PID.TID 0000.0001) %MON RT_Ed011_del2                =   6.8997516702964E-04
(PID.TID 0000.0001) %MON RT_Ed012_max                 =   7.4841606113646E+00
(PID.TID 0000.0001) %MON RT_Ed012_min                 =   5.1612275983906E-37
(PID.TID 0000.0001) %MON RT_Ed012_mean                =   2.5977871406568E+00
(PID.TID 0000.0001) %MON RT_Ed012_sd                  =   1.7520265584457E+00
(PID.TID 0000.0001) %MON RT_Ed012_del2                =   6.2652298423134E-04
(PID.TID 0000.0001) %MON RT_Ed013_max                 =   3.6977701753378E+00
(PID.TID 0000.0001) %MON RT_Ed013_min                 =   5.1612347531092E-37
(PID.TID 0000.0001) %MON RT_Ed013_mean                =   1.2780644850274E+00
(PID.TID 0000.0001) %MON RT_Ed013_sd                  =   8.5783726962184E-01
(PID.TID 0000.0001) %MON RT_Ed013_del2                =   3.0895538927984E-04
(PID.TID 0000.0001) %MON RT_Es001_max                 =   2.9258968055248E+00
(PID.TID 0000.0001) %MON RT_Es001_min                 =   4.6922806844741E-37
(PID.TID 0000.0001) %MON RT_Es001_mean                =   1.9221785372649E+00
(PID.TID 0000.0001) %MON RT_Es001_sd                  =   7.2419327260892E-01
(PID.TID 0000.0001) %MON RT_Es001_del2                =   1.7542446335034E-04
(PID.TID 0000.0001) %MON RT_Es002_max                 =   6.9805682003498E+00
(PID.TID 0000.0001) %MON RT_Es002_min                 =   9.3845613689483E-37
(PID.TID 0000.0001) %MON RT_Es002_mean                =   4.5357043587920E+00
(PID.TID 0000.0001) %MON RT_Es002_sd                  =   1.7200227304358E+00
(PID.TID 0000.0001) %MON RT_Es002_del2                =   4.3318631910715E-04
(PID.TID 0000.0001) %MON RT_Es003_max                 =   8.0270610895422E+00
(PID.TID 0000.0001) %MON RT_Es003_min                 =   9.3845613689483E-37
(PID.TID 0000.0001) %MON RT_Es003_mean                =   5.1679746792227E+00
(PID.TID 0000.0001) %MON RT_Es003_sd                  =   1.9760474479043E+00
(PID.TID 0000.0001) %MON RT_Es003_del2                =   5.2092166401364E-04
(PID.TID 0000.0001) %MON RT_Es004_max                 =   8.0646485514111E+00
(PID.TID 0000.0001) %MON RT_Es004_min                 =   9.3845618161182E-37
(PID.TID 0000.0001) %MON RT_Es004_mean                =   5.1505668774641E+00
(PID.TID 0000.0001) %MON RT_Es004_sd                  =   1.9825710112421E+00
(PID.TID 0000.0001) %MON RT_Es004_del2                =   5.3888325188874E-04
(PID.TID 0000.0001) %MON RT_Es005_max                 =   7.7764864391751E+00
(PID.TID 0000.0001) %MON RT_Es005_min                 =   9.3845622632881E-37
(PID.TID 0000.0001) %MON RT_Es005_mean                =   4.9329712048006E+00
(PID.TID 0000.0001) %MON RT_Es005_sd                  =   1.9119440582511E+00
(PID.TID 0000.0001) %MON RT_Es005_del2                =   5.3121816877482E-04
(PID.TID 0000.0001) %MON RT_Es006_max                 =   7.3732730699910E+00
(PID.TID 0000.0001) %MON RT_Es006_min                 =   9.3845636047978E-37
(PID.TID 0000.0001) %MON RT_Es006_mean                =   4.6470994175735E+00
(PID.TID 0000.0001) %MON RT_Es006_sd                  =   1.8165225209689E+00
(PID.TID 0000.0001) %MON RT_Es006_del2                =   5.1547477795943E-04
(PID.TID 0000.0001) %MON RT_Es007_max                 =   7.2592306024498E+00
(PID.TID 0000.0001) %MON RT_Es007_min                 =   9.3845644991376E-37
(PID.TID 0000.0001) %MON RT_Es007_mean                =   4.5511415347300E+00
(PID.TID 0000.0001) %MON RT_Es007_sd                  =   1.7939053980737E+00
(PID.TID 0000.0001) %MON RT_Es007_del2                =   5.1703083633117E-04
(PID.TID 0000.0001) %MON RT_Es008_max                 =   7.0182533846961E+00
(PID.TID 0000.0001) %MON RT_Es008_min                 =   9.3845662878173E-37
(PID.TID 0000.0001) %MON RT_Es008_mean                =   4.3710292191430E+00
(PID.TID 0000.0001) %MON RT_Es008_sd                  =   1.7377983098261E+00
(PID.TID 0000.0001) %MON RT_Es008_del2                =   5.0714003986412E-04
(PID.TID 0000.0001) %MON RT_Es009_max                 =   6.5691454847654E+00
(PID.TID 0000.0001) %MON RT_Es009_min                 =   9.3845738897057E-37
(PID.TID 0000.0001) %MON RT_Es009_mean                =   4.0587122264947E+00
(PID.TID 0000.0001) %MON RT_Es009_sd                  =   1.6231844887599E+00
(PID.TID 0000.0001) %MON RT_Es009_del2                =   4.8120762575382E-04
(PID.TID 0000.0001) %MON RT_Es010_max                 =   6.4142785761091E+00
(PID.TID 0000.0001) %MON RT_Es010_min                 =   9.3845792557447E-37
(PID.TID 0000.0001) %MON RT_Es010_mean                =   3.9763263065325E+00
(PID.TID 0000.0001) %MON RT_Es010_sd                  =   1.5881093462739E+00
(PID.TID 0000.0001) %MON RT_Es010_del2                =   4.7534467904984E-04
(PID.TID 0000.0001) %MON RT_Es011_max                 =   6.0376754078600E+00
(PID.TID 0000.0001) %MON RT_Es011_min                 =   9.3845832802738E-37
(PID.TID 0000.0001) %MON RT_Es011_mean                =   3.7217902461897E+00
(PID.TID 0000.0001) %MON RT_Es011_sd                  =   1.4843881902432E+00
(PID.TID 0000.0001) %MON RT_Es011_del2                =   4.5543093574133E-04
(PID.TID 0000.0001) %MON RT_Es012_max                 =   5.4183848785030E+00
(PID.TID 0000.0001) %MON RT_Es012_min                 =   9.3845890934827E-37
(PID.TID 0000.0001) %MON RT_Es012_mean                =   3.3338888536026E+00
(PID.TID 0000.0001) %MON RT_Es012_sd                  =   1.3449440631949E+00
(PID.TID 0000.0001) %MON RT_Es012_del2                =   4.0907817021296E-04
(PID.TID 0000.0001) %MON RT_Es013_max                 =   2.6722178932693E+00
(PID.TID 0000.0001) %MON RT_Es013_min                 =   9.3845984840508E-37
(PID.TID 0000.0001) %MON RT_Es013_mean                =   1.6316545634048E+00
(PID.TID 0000.0001) %MON RT_Es013_sd                  =   6.5795087232535E-01
(PID.TID 0000.0001) %MON RT_Es013_del2                =   2.0398947336519E-04
(PID.TID 0000.0001) // =======================================================
(PID.TID 0000.0001) // End MONITOR RADTRANS statistics
(PID.TID 0000.0001) // =======================================================
(PID.TID 0000.0001) // =======================================================
(PID.TID 0000.0001) // Begin MONITOR DARWIN statistics
(PID.TID 0000.0001) // =======================================================
(PID.TID 0000.0001) %MON darwin_tsnumber              =                     1
(PID.TID 0000.0001) %MON darwin_time_sec              =   3.6000000000000E+03
(PID.TID 0000.0001) %MON darwin_surfPAR_max           =   0.0000000000000E+00
(PID.TID 0000.0001) %MON darwin_surfPAR_min           =   0.0000000000000E+00
(PID.TID 0000.0001) %MON darwin_surfPAR_mean          =   0.0000000000000E+00
(PID.TID 0000.0001) %MON darwin_surfPAR_sd            =   0.0000000000000E+00
(PID.TID 0000.0001) %MON darwin_surfPAR_del2          =   0.0000000000000E+00
(PID.TID 0000.0001) %MON darwin_inputFe_max           =   4.8171645329349E-09
(PID.TID 0000.0001) %MON darwin_inputFe_min           =   7.4751689122503E-12
(PID.TID 0000.0001) %MON darwin_inputFe_mean          =   4.3467270554840E-10
(PID.TID 0000.0001) %MON darwin_inputFe_sd            =   5.1791941869659E-10
(PID.TID 0000.0001) %MON darwin_inputFe_del2          =   1.6354509412096E-13
(PID.TID 0000.0001) %MON darwin_iceFrac_max           =   1.0000000000000E+00
(PID.TID 0000.0001) %MON darwin_iceFrac_min           =   0.0000000000000E+00
(PID.TID 0000.0001) %MON darwin_iceFrac_mean          =   6.0863244446712E-03
(PID.TID 0000.0001) %MON darwin_iceFrac_sd            =   6.5786020420495E-02
(PID.TID 0000.0001) %MON darwin_iceFrac_del2          =   2.8275448132720E-04
(PID.TID 0000.0001) %MON darwin_windSpeed_max         =   1.4270577549934E+01
(PID.TID 0000.0001) %MON darwin_windSpeed_min         =   2.1541499247154E+00
(PID.TID 0000.0001) %MON darwin_windSpeed_mean        =   7.6790960895271E+00
(PID.TID 0000.0001) %MON darwin_windSpeed_sd          =   2.3580367751565E+00
(PID.TID 0000.0001) %MON darwin_windSpeed_del2        =   8.2322929116148E-04
(PID.TID 0000.0001) %MON darwin_atmospCO2_max         =   2.7800000000000E-04
(PID.TID 0000.0001) %MON darwin_atmospCO2_min         =   2.7800000000000E-04
(PID.TID 0000.0001) %MON darwin_atmospCO2_mean        =   2.7800000000000E-04
(PID.TID 0000.0001) %MON darwin_atmospCO2_sd          =   5.4210108624275E-19
(PID.TID 0000.0001) %MON darwin_atmospCO2_del2        =   0.0000000000000E+00
(PID.TID 0000.0001) %MON darwin_ventHe3_max           =   0.0000000000000E+00
(PID.TID 0000.0001) %MON darwin_ventHe3_min           =   0.0000000000000E+00
(PID.TID 0000.0001) %MON darwin_ventHe3_mean          =   0.0000000000000E+00
(PID.TID 0000.0001) %MON darwin_ventHe3_sd            =   0.0000000000000E+00
(PID.TID 0000.0001) %MON darwin_ventHe3_del2          =   0.0000000000000E+00
(PID.TID 0000.0001) %MON darwin_DOCrunoff_max         =   0.0000000000000E+00
(PID.TID 0000.0001) %MON darwin_DOCrunoff_min         =   0.0000000000000E+00
(PID.TID 0000.0001) %MON darwin_DOCrunoff_mean        =   0.0000000000000E+00
(PID.TID 0000.0001) %MON darwin_DOCrunoff_sd          =   0.0000000000000E+00
(PID.TID 0000.0001) %MON darwin_DOCrunoff_del2        =   0.0000000000000E+00
(PID.TID 0000.0001) %MON darwin_DONrunoff_max         =   0.0000000000000E+00
(PID.TID 0000.0001) %MON darwin_DONrunoff_min         =   0.0000000000000E+00
(PID.TID 0000.0001) %MON darwin_DONrunoff_mean        =   0.0000000000000E+00
(PID.TID 0000.0001) %MON darwin_DONrunoff_sd          =   0.0000000000000E+00
(PID.TID 0000.0001) %MON darwin_DONrunoff_del2        =   0.0000000000000E+00
(PID.TID 0000.0001) %MON darwin_DOPrunoff_max         =   0.0000000000000E+00
(PID.TID 0000.0001) %MON darwin_DOPrunoff_min         =   0.0000000000000E+00
(PID.TID 0000.0001) %MON darwin_DOPrunoff_mean        =   0.0000000000000E+00
(PID.TID 0000.0001) %MON darwin_DOPrunoff_sd          =   0.0000000000000E+00
(PID.TID 0000.0001) %MON darwin_DOPrunoff_del2        =   0.0000000000000E+00
(PID.TID 0000.0001) %MON darwin_DINrunoff_max         =   0.0000000000000E+00
(PID.TID 0000.0001) %MON darwin_DINrunoff_min         =   0.0000000000000E+00
(PID.TID 0000.0001) %MON darwin_DINrunoff_mean        =   0.0000000000000E+00
(PID.TID 0000.0001) %MON darwin_DINrunoff_sd          =   0.0000000000000E+00
(PID.TID 0000.0001) %MON darwin_DINrunoff_del2        =   0.0000000000000E+00
(PID.TID 0000.0001) %MON darwin_IPrunoff_max          =   0.0000000000000E+00
(PID.TID 0000.0001) %MON darwin_IPrunoff_min          =   0.0000000000000E+00
(PID.TID 0000.0001) %MON darwin_IPrunoff_mean         =   0.0000000000000E+00
(PID.TID 0000.0001) %MON darwin_IPrunoff_sd           =   0.0000000000000E+00
(PID.TID 0000.0001) %MON darwin_IPrunoff_del2         =   0.0000000000000E+00
(PID.TID 0000.0001) %MON darwin_DSirunoff_max         =   0.0000000000000E+00
(PID.TID 0000.0001) %MON darwin_DSirunoff_min         =   0.0000000000000E+00
(PID.TID 0000.0001) %MON darwin_DSirunoff_mean        =   0.0000000000000E+00
(PID.TID 0000.0001) %MON darwin_DSirunoff_sd          =   0.0000000000000E+00
(PID.TID 0000.0001) %MON darwin_DSirunoff_del2        =   0.0000000000000E+00
(PID.TID 0000.0001) %MON darwin_POCrunoff_max         =   0.0000000000000E+00
(PID.TID 0000.0001) %MON darwin_POCrunoff_min         =   0.0000000000000E+00
(PID.TID 0000.0001) %MON darwin_POCrunoff_mean        =   0.0000000000000E+00
(PID.TID 0000.0001) %MON darwin_POCrunoff_sd          =   0.0000000000000E+00
(PID.TID 0000.0001) %MON darwin_POCrunoff_del2        =   0.0000000000000E+00
(PID.TID 0000.0001) %MON darwin_POPrunoff_max         =   0.0000000000000E+00
(PID.TID 0000.0001) %MON darwin_POPrunoff_min         =   0.0000000000000E+00
(PID.TID 0000.0001) %MON darwin_POPrunoff_mean        =   0.0000000000000E+00
(PID.TID 0000.0001) %MON darwin_POPrunoff_sd          =   0.0000000000000E+00
(PID.TID 0000.0001) %MON darwin_POPrunoff_del2        =   0.0000000000000E+00
(PID.TID 0000.0001) %MON darwin_PONrunoff_max         =   0.0000000000000E+00
(PID.TID 0000.0001) %MON darwin_PONrunoff_min         =   0.0000000000000E+00
(PID.TID 0000.0001) %MON darwin_PONrunoff_mean        =   0.0000000000000E+00
(PID.TID 0000.0001) %MON darwin_PONrunoff_sd          =   0.0000000000000E+00
(PID.TID 0000.0001) %MON darwin_PONrunoff_del2        =   0.0000000000000E+00
(PID.TID 0000.0001) %MON darwin_DICrunoff_max         =   0.0000000000000E+00
(PID.TID 0000.0001) %MON darwin_DICrunoff_min         =   0.0000000000000E+00
(PID.TID 0000.0001) %MON darwin_DICrunoff_mean        =   0.0000000000000E+00
(PID.TID 0000.0001) %MON darwin_DICrunoff_sd          =   0.0000000000000E+00
(PID.TID 0000.0001) %MON darwin_DICrunoff_del2        =   0.0000000000000E+00
(PID.TID 0000.0001) // =======================================================
(PID.TID 0000.0001) // End MONITOR DARWIN statistics
(PID.TID 0000.0001) // =======================================================
(PID.TID 0000.0001) // =======================================================
(PID.TID 0000.0001) // Begin MONITOR dynamic field statistics
(PID.TID 0000.0001) // =======================================================
(PID.TID 0000.0001) %MON time_tsnumber                =                     2
(PID.TID 0000.0001) %MON time_secondsf                =   7.2000000000000E+03
(PID.TID 0000.0001) %MON dynstat_eta_max              =   0.0000000000000E+00
(PID.TID 0000.0001) %MON dynstat_eta_min              =   0.0000000000000E+00
(PID.TID 0000.0001) %MON dynstat_eta_mean             =   0.0000000000000E+00
(PID.TID 0000.0001) %MON dynstat_eta_sd               =   0.0000000000000E+00
(PID.TID 0000.0001) %MON dynstat_eta_del2             =   0.0000000000000E+00
(PID.TID 0000.0001) %MON dynstat_uvel_max             =   7.7350547909737E-01
(PID.TID 0000.0001) %MON dynstat_uvel_min             =  -8.3114770551523E-01
(PID.TID 0000.0001) %MON dynstat_uvel_mean            =   2.3404205213498E-03
(PID.TID 0000.0001) %MON dynstat_uvel_sd              =   2.2853111160159E-02
(PID.TID 0000.0001) %MON dynstat_uvel_del2            =   2.5381184388454E-05
(PID.TID 0000.0001) %MON dynstat_vvel_max             =   1.3461631933848E+00
(PID.TID 0000.0001) %MON dynstat_vvel_min             =  -8.2178317693373E-01
(PID.TID 0000.0001) %MON dynstat_vvel_mean            =  -1.7712756803555E-05
(PID.TID 0000.0001) %MON dynstat_vvel_sd              =   1.1630536466980E-02
(PID.TID 0000.0001) %MON dynstat_vvel_del2            =   2.3677132909796E-05
(PID.TID 0000.0001) %MON dynstat_wvel_max             =   4.8071096656107E-04
(PID.TID 0000.0001) %MON dynstat_wvel_min             =  -6.2355582485907E-04
(PID.TID 0000.0001) %MON dynstat_wvel_mean            =   2.1409094546176E-14
(PID.TID 0000.0001) %MON dynstat_wvel_sd              =   1.0153453498492E-05
(PID.TID 0000.0001) %MON dynstat_wvel_del2            =   1.8695442909690E-08
(PID.TID 0000.0001) %MON dynstat_theta_max            =   3.1794526576996E+01
(PID.TID 0000.0001) %MON dynstat_theta_min            =  -2.6731135249138E+00
(PID.TID 0000.0001) %MON dynstat_theta_mean           =   3.6070102970983E+00
(PID.TID 0000.0001) %MON dynstat_theta_sd             =   4.4532574145356E+00
(PID.TID 0000.0001) %MON dynstat_theta_del2           =   3.5993616724257E-04
(PID.TID 0000.0001) %MON dynstat_salt_max             =   3.9534736633301E+01
(PID.TID 0000.0001) %MON dynstat_salt_min             =   2.6477639516195E+01
(PID.TID 0000.0001) %MON dynstat_salt_mean            =   3.4722179783713E+01
(PID.TID 0000.0001) %MON dynstat_salt_sd              =   3.6507630303070E-01
(PID.TID 0000.0001) %MON dynstat_salt_del2            =   6.8861948229277E-05
(PID.TID 0000.0001) %MON dynstat_sst_max              =   3.1794526576996E+01
(PID.TID 0000.0001) %MON dynstat_sst_min              =  -1.9912642439206E+00
(PID.TID 0000.0001) %MON dynstat_sst_mean             =   1.9172841030373E+01
(PID.TID 0000.0001) %MON dynstat_sst_sd               =   9.5465407635777E+00
(PID.TID 0000.0001) %MON dynstat_sst_del2             =   2.1528183703066E-03
(PID.TID 0000.0001) %MON dynstat_sss_max              =   3.9534736633301E+01
(PID.TID 0000.0001) %MON dynstat_sss_min              =   2.6477639516195E+01
(PID.TID 0000.0001) %MON dynstat_sss_mean             =   3.4861594061364E+01
(PID.TID 0000.0001) %MON dynstat_sss_sd               =   1.0808899643187E+00
(PID.TID 0000.0001) %MON dynstat_sss_del2             =   5.9463366062707E-04
(PID.TID 0000.0001) %MON forcing_qnet_max             =   0.0000000000000E+00
(PID.TID 0000.0001) %MON forcing_qnet_min             =   0.0000000000000E+00
(PID.TID 0000.0001) %MON forcing_qnet_mean            =   0.0000000000000E+00
(PID.TID 0000.0001) %MON forcing_qnet_sd              =   0.0000000000000E+00
(PID.TID 0000.0001) %MON forcing_qnet_del2            =   0.0000000000000E+00
(PID.TID 0000.0001) %MON forcing_qsw_max              =   0.0000000000000E+00
(PID.TID 0000.0001) %MON forcing_qsw_min              =   0.0000000000000E+00
(PID.TID 0000.0001) %MON forcing_qsw_mean             =   0.0000000000000E+00
(PID.TID 0000.0001) %MON forcing_qsw_sd               =   0.0000000000000E+00
(PID.TID 0000.0001) %MON forcing_qsw_del2             =   0.0000000000000E+00
(PID.TID 0000.0001) %MON forcing_empmr_max            =   0.0000000000000E+00
(PID.TID 0000.0001) %MON forcing_empmr_min            =   0.0000000000000E+00
(PID.TID 0000.0001) %MON forcing_empmr_mean           =   0.0000000000000E+00
(PID.TID 0000.0001) %MON forcing_empmr_sd             =   0.0000000000000E+00
(PID.TID 0000.0001) %MON forcing_empmr_del2           =   0.0000000000000E+00
(PID.TID 0000.0001) %MON forcing_fu_max               =   0.0000000000000E+00
(PID.TID 0000.0001) %MON forcing_fu_min               =   0.0000000000000E+00
(PID.TID 0000.0001) %MON forcing_fu_mean              =   0.0000000000000E+00
(PID.TID 0000.0001) %MON forcing_fu_sd                =   0.0000000000000E+00
(PID.TID 0000.0001) %MON forcing_fu_del2              =   0.0000000000000E+00
(PID.TID 0000.0001) %MON forcing_fv_max               =   0.0000000000000E+00
(PID.TID 0000.0001) %MON forcing_fv_min               =   0.0000000000000E+00
(PID.TID 0000.0001) %MON forcing_fv_mean              =   0.0000000000000E+00
(PID.TID 0000.0001) %MON forcing_fv_sd                =   0.0000000000000E+00
(PID.TID 0000.0001) %MON forcing_fv_del2              =   0.0000000000000E+00
(PID.TID 0000.0001) %MON trAdv_CFL_u_max              =   4.5657237142810E-02
(PID.TID 0000.0001) %MON trAdv_CFL_v_max              =   4.5166209739178E-02
(PID.TID 0000.0001) %MON trAdv_CFL_w_max              =   6.4777347579366E-02
(PID.TID 0000.0001) %MON advcfl_uvel_max              =   4.4336880287799E-02
(PID.TID 0000.0001) %MON advcfl_vvel_max              =   4.3589653102118E-02
(PID.TID 0000.0001) %MON advcfl_wvel_max              =   7.6913754649771E-02
(PID.TID 0000.0001) %MON advcfl_W_hf_max              =   8.6527973980992E-02
(PID.TID 0000.0001) %MON pe_b_mean                    =   0.0000000000000E+00
(PID.TID 0000.0001) %MON ke_max                       =   7.2987910118337E-01
(PID.TID 0000.0001) %MON ke_mean                      =   3.1796575531398E-04
(PID.TID 0000.0001) %MON ke_vol                       =   1.3258927395736E+18
(PID.TID 0000.0001) %MON vort_r_min                   =  -1.3722698025927E-05
(PID.TID 0000.0001) %MON vort_r_max                   =   1.6612226632808E-05
(PID.TID 0000.0001) %MON vort_a_mean                  =  -2.1443554603594E-05
(PID.TID 0000.0001) %MON vort_a_sd                    =   7.3250399594448E-05
(PID.TID 0000.0001) %MON vort_p_mean                  =  -2.3136237658118E-05
(PID.TID 0000.0001) %MON vort_p_sd                    =   8.5528189077972E-05
(PID.TID 0000.0001) %MON surfExpan_theta_mean         =  -4.6303780088069E-08
(PID.TID 0000.0001) %MON surfExpan_salt_mean          =   6.7151570946380E-09
(PID.TID 0000.0001) // =======================================================
(PID.TID 0000.0001) // End MONITOR dynamic field statistics
(PID.TID 0000.0001) // =======================================================
(PID.TID 0000.0001) // =======================================================
(PID.TID 0000.0001) // Begin MONITOR ptracer field statistics
(PID.TID 0000.0001) // =======================================================
(PID.TID 0000.0001) %MON trcstat_ptracer01_max        =   2.4112466101861E+03
(PID.TID 0000.0001) %MON trcstat_ptracer01_min        =   1.7248732876722E+03
(PID.TID 0000.0001) %MON trcstat_ptracer01_mean       =   2.2529005383337E+03
(PID.TID 0000.0001) %MON trcstat_ptracer01_sd         =   8.1239056997228E+01
(PID.TID 0000.0001) %MON trcstat_ptracer01_del2       =   8.1005657629527E-03
(PID.TID 0000.0001) %MON trcstat_ptracer02_max        =   4.4817928198527E+01
(PID.TID 0000.0001) %MON trcstat_ptracer02_min        =  -1.3122447447973E-01
(PID.TID 0000.0001) %MON trcstat_ptracer02_mean       =   3.0672995809663E+01
(PID.TID 0000.0001) %MON trcstat_ptracer02_sd         =   9.1048629676216E+00
(PID.TID 0000.0001) %MON trcstat_ptracer02_del2       =   7.0621283482450E-04
(PID.TID 0000.0001) %MON trcstat_ptracer03_max        =   8.5756230914919E+00
(PID.TID 0000.0001) %MON trcstat_ptracer03_min        =  -5.7953575782382E-09
(PID.TID 0000.0001) %MON trcstat_ptracer03_mean       =   1.9999178045362E-02
(PID.TID 0000.0001) %MON trcstat_ptracer03_sd         =   1.4840369805865E-01
(PID.TID 0000.0001) %MON trcstat_ptracer03_del2       =   2.0526907391958E-04
(PID.TID 0000.0001) %MON trcstat_ptracer04_max        =   1.3280841126048E+01
(PID.TID 0000.0001) %MON trcstat_ptracer04_min        =  -1.2603883388057E-07
(PID.TID 0000.0001) %MON trcstat_ptracer04_mean       =   7.3519450833304E-02
(PID.TID 0000.0001) %MON trcstat_ptracer04_sd         =   5.8114877805495E-01
(PID.TID 0000.0001) %MON trcstat_ptracer04_del2       =   3.0288790356616E-04
(PID.TID 0000.0001) %MON trcstat_ptracer05_max        =   3.5973360849423E+00
(PID.TID 0000.0001) %MON trcstat_ptracer05_min        =   8.4469537407078E-02
(PID.TID 0000.0001) %MON trcstat_ptracer05_mean       =   2.1791623975314E+00
(PID.TID 0000.0001) %MON trcstat_ptracer05_sd         =   6.1922981656521E-01
(PID.TID 0000.0001) %MON trcstat_ptracer05_del2       =   3.7928178077083E-05
(PID.TID 0000.0001) %MON trcstat_ptracer06_max        =   1.0589423427833E-03
(PID.TID 0000.0001) %MON trcstat_ptracer06_min        =  -8.6112575530375E-05
(PID.TID 0000.0001) %MON trcstat_ptracer06_mean       =   6.2671862686444E-04
(PID.TID 0000.0001) %MON trcstat_ptracer06_sd         =   1.9447354007950E-04
(PID.TID 0000.0001) %MON trcstat_ptracer06_del2       =   8.0439462123757E-08
(PID.TID 0000.0001) %MON trcstat_ptracer07_max        =   2.7520602772814E+02
(PID.TID 0000.0001) %MON trcstat_ptracer07_min        =   1.1357056360943E+00
(PID.TID 0000.0001) %MON trcstat_ptracer07_mean       =   9.0930632973140E+01
(PID.TID 0000.0001) %MON trcstat_ptracer07_sd         =   5.1624229277640E+01
(PID.TID 0000.0001) %MON trcstat_ptracer07_del2       =   1.3880386451345E-03
(PID.TID 0000.0001) %MON trcstat_ptracer08_max        =   2.7664235377566E+02
(PID.TID 0000.0001) %MON trcstat_ptracer08_min        =   2.9629626989352E-08
(PID.TID 0000.0001) %MON trcstat_ptracer08_mean       =   1.5402336686775E-01
(PID.TID 0000.0001) %MON trcstat_ptracer08_sd         =   1.0176261293383E+00
(PID.TID 0000.0001) %MON trcstat_ptracer08_del2       =   1.1941769714637E-03
(PID.TID 0000.0001) %MON trcstat_ptracer09_max        =   3.9126129247255E+01
(PID.TID 0000.0001) %MON trcstat_ptracer09_min        =  -3.9733782528163E-08
(PID.TID 0000.0001) %MON trcstat_ptracer09_mean       =   1.8942584087613E-02
(PID.TID 0000.0001) %MON trcstat_ptracer09_sd         =   1.1654387828358E-01
(PID.TID 0000.0001) %MON trcstat_ptracer09_del2       =   9.5731166610142E-05
(PID.TID 0000.0001) %MON trcstat_ptracer10_max        =   2.3054161427686E+00
(PID.TID 0000.0001) %MON trcstat_ptracer10_min        =  -2.3996597009259E-09
(PID.TID 0000.0001) %MON trcstat_ptracer10_mean       =   2.0657629856047E-04
(PID.TID 0000.0001) %MON trcstat_ptracer10_sd         =   3.5919705747320E-03
(PID.TID 0000.0001) %MON trcstat_ptracer10_del2       =   1.0255056402475E-06
(PID.TID 0000.0001) %MON trcstat_ptracer11_max        =   7.0681439316124E-03
(PID.TID 0000.0001) %MON trcstat_ptracer11_min        =  -2.8955517091008E-11
(PID.TID 0000.0001) %MON trcstat_ptracer11_mean       =   8.9871237252833E-06
(PID.TID 0000.0001) %MON trcstat_ptracer11_sd         =   4.4041106199521E-05
(PID.TID 0000.0001) %MON trcstat_ptracer11_del2       =   4.3500717846060E-08
(PID.TID 0000.0001) %MON trcstat_ptracer12_max        =   1.0477746872755E+03
(PID.TID 0000.0001) %MON trcstat_ptracer12_min        =   2.8943151650696E-09
(PID.TID 0000.0001) %MON trcstat_ptracer12_mean       =   2.3784574541928E-02
(PID.TID 0000.0001) %MON trcstat_ptracer12_sd         =   1.6018529290339E+00
(PID.TID 0000.0001) %MON trcstat_ptracer12_del2       =   1.2313789601997E-04
(PID.TID 0000.0001) %MON trcstat_ptracer13_max        =   1.4830096568895E+02
(PID.TID 0000.0001) %MON trcstat_ptracer13_min        =   1.8976173993850E-10
(PID.TID 0000.0001) %MON trcstat_ptracer13_mean       =   3.0621710279729E-03
(PID.TID 0000.0001) %MON trcstat_ptracer13_sd         =   2.2787442228731E-01
(PID.TID 0000.0001) %MON trcstat_ptracer13_del2       =   1.4773571164132E-05
(PID.TID 0000.0001) %MON trcstat_ptracer14_max        =   8.5846770774416E+00
(PID.TID 0000.0001) %MON trcstat_ptracer14_min        =   3.0560956330762E-12
(PID.TID 0000.0001) %MON trcstat_ptracer14_mean       =   5.7186005898779E-05
(PID.TID 0000.0001) %MON trcstat_ptracer14_sd         =   1.2928995351086E-02
(PID.TID 0000.0001) %MON trcstat_ptracer14_del2       =   1.9315271890406E-07
(PID.TID 0000.0001) %MON trcstat_ptracer15_max        =   1.0527033523944E-02
(PID.TID 0000.0001) %MON trcstat_ptracer15_min        =  -9.4929684909197E-13
(PID.TID 0000.0001) %MON trcstat_ptracer15_mean       =   1.2263161311125E-06
(PID.TID 0000.0001) %MON trcstat_ptracer15_sd         =   1.8502159236390E-05
(PID.TID 0000.0001) %MON trcstat_ptracer15_del2       =   7.7477494162799E-09
(PID.TID 0000.0001) %MON trcstat_ptracer16_max        =   2.5129775520110E+01
(PID.TID 0000.0001) %MON trcstat_ptracer16_min        =  -1.7984322901912E-07
(PID.TID 0000.0001) %MON trcstat_ptracer16_mean       =   1.4887654879823E-02
(PID.TID 0000.0001) %MON trcstat_ptracer16_sd         =   1.1612631161529E-01
(PID.TID 0000.0001) %MON trcstat_ptracer16_del2       =   1.0098095060190E-05
(PID.TID 0000.0001) %MON trcstat_ptracer17_max        =   1.6449808482731E+01
(PID.TID 0000.0001) %MON trcstat_ptracer17_min        =  -1.1105742138499E-07
(PID.TID 0000.0001) %MON trcstat_ptracer17_mean       =   6.2385981385002E-03
(PID.TID 0000.0001) %MON trcstat_ptracer17_sd         =   5.6831960896559E-02
(PID.TID 0000.0001) %MON trcstat_ptracer17_del2       =   1.3418532954586E-05
(PID.TID 0000.0001) %MON trcstat_ptracer18_max        =   2.5679987310894E+03
(PID.TID 0000.0001) %MON trcstat_ptracer18_min        =   2.0138974732989E+03
(PID.TID 0000.0001) %MON trcstat_ptracer18_mean       =   2.3641769126727E+03
(PID.TID 0000.0001) %MON trcstat_ptracer18_sd         =   4.2025257812052E+01
(PID.TID 0000.0001) %MON trcstat_ptracer18_del2       =   4.8844273026264E-03
(PID.TID 0000.0001) %MON trcstat_ptracer19_max        =   3.8533505378311E+02
(PID.TID 0000.0001) %MON trcstat_ptracer19_min        =   2.7955508862841E-05
(PID.TID 0000.0001) %MON trcstat_ptracer19_mean       =   2.0398223164256E+01
(PID.TID 0000.0001) %MON trcstat_ptracer19_sd         =   5.4786288005975E+01
(PID.TID 0000.0001) %MON trcstat_ptracer19_del2       =   1.3272085701701E-02
(PID.TID 0000.0001) %MON trcstat_ptracer20_max        =   9.8841402455884E-02
(PID.TID 0000.0001) %MON trcstat_ptracer20_min        =  -1.2807751663302E-11
(PID.TID 0000.0001) %MON trcstat_ptracer20_mean       =   4.2682864875199E-05
(PID.TID 0000.0001) %MON trcstat_ptracer20_sd         =   1.6129409161410E-04
(PID.TID 0000.0001) %MON trcstat_ptracer20_del2       =   2.0741428864583E-08
(PID.TID 0000.0001) %MON trcstat_ptracer21_max        =   6.5168617990221E+01
(PID.TID 0000.0001) %MON trcstat_ptracer21_min        =  -1.4922820331596E-06
(PID.TID 0000.0001) %MON trcstat_ptracer21_mean       =   1.1840439348512E-01
(PID.TID 0000.0001) %MON trcstat_ptracer21_sd         =   9.7263213449364E-01
(PID.TID 0000.0001) %MON trcstat_ptracer21_del2       =   1.2783029529311E-03
(PID.TID 0000.0001) %MON trcstat_ptracer22_max        =   2.1991650282709E+01
(PID.TID 0000.0001) %MON trcstat_ptracer22_min        =  -4.5166745213481E-08
(PID.TID 0000.0001) %MON trcstat_ptracer22_mean       =   2.3745498550688E-02
(PID.TID 0000.0001) %MON trcstat_ptracer22_sd         =   2.3886477848696E-01
(PID.TID 0000.0001) %MON trcstat_ptracer22_del2       =   4.5110987685282E-04
(PID.TID 0000.0001) %MON trcstat_ptracer23_max        =   4.0272965764025E-11
(PID.TID 0000.0001) %MON trcstat_ptracer23_min        =  -1.9602668985564E-19
(PID.TID 0000.0001) %MON trcstat_ptracer23_mean       =   1.4734751675743E-13
(PID.TID 0000.0001) %MON trcstat_ptracer23_sd         =   5.4427151708065E-13
(PID.TID 0000.0001) %MON trcstat_ptracer23_del2       =   1.7972457936136E-16
(PID.TID 0000.0001) %MON trcstat_ptracer24_max        =   4.0272965764025E-11
(PID.TID 0000.0001) %MON trcstat_ptracer24_min        =  -1.9602668985564E-19
(PID.TID 0000.0001) %MON trcstat_ptracer24_mean       =   1.4734751675743E-13
(PID.TID 0000.0001) %MON trcstat_ptracer24_sd         =   5.4427151708065E-13
(PID.TID 0000.0001) %MON trcstat_ptracer24_del2       =   1.7972457936136E-16
(PID.TID 0000.0001) %MON trcstat_ptracer25_max        =   7.1349181203289E+00
(PID.TID 0000.0001) %MON trcstat_ptracer25_min        =  -1.2362823251607E-07
(PID.TID 0000.0001) %MON trcstat_ptracer25_mean       =   1.4403718263943E-02
(PID.TID 0000.0001) %MON trcstat_ptracer25_sd         =   1.0535041681912E-01
(PID.TID 0000.0001) %MON trcstat_ptracer25_del2       =   1.4011551581793E-04
(PID.TID 0000.0001) %MON trcstat_ptracer26_max        =   3.7514702722062E+00
(PID.TID 0000.0001) %MON trcstat_ptracer26_min        =  -8.0792353706952E-09
(PID.TID 0000.0001) %MON trcstat_ptracer26_mean       =   3.4039579094505E-03
(PID.TID 0000.0001) %MON trcstat_ptracer26_sd         =   3.3746765688245E-02
(PID.TID 0000.0001) %MON trcstat_ptracer26_del2       =   6.6344565758194E-05
(PID.TID 0000.0001) %MON trcstat_ptracer27_max        =   6.0789380940399E-12
(PID.TID 0000.0001) %MON trcstat_ptracer27_min        =  -2.9588934363934E-20
(PID.TID 0000.0001) %MON trcstat_ptracer27_mean       =   2.2241134605392E-14
(PID.TID 0000.0001) %MON trcstat_ptracer27_sd         =   8.2154191252039E-14
(PID.TID 0000.0001) %MON trcstat_ptracer27_del2       =   2.7128238393379E-17
(PID.TID 0000.0001) %MON trcstat_ptracer28_max        =   6.0789380940399E-12
(PID.TID 0000.0001) %MON trcstat_ptracer28_min        =  -2.9588934363934E-20
(PID.TID 0000.0001) %MON trcstat_ptracer28_mean       =   2.2241134605392E-14
(PID.TID 0000.0001) %MON trcstat_ptracer28_sd         =   8.2154191252039E-14
(PID.TID 0000.0001) %MON trcstat_ptracer28_del2       =   2.7128238393379E-17
(PID.TID 0000.0001) %MON trcstat_ptracer29_max        =   8.3824428311842E-02
(PID.TID 0000.0001) %MON trcstat_ptracer29_min        =  -1.7719320147476E-09
(PID.TID 0000.0001) %MON trcstat_ptracer29_mean       =   1.5678247102912E-04
(PID.TID 0000.0001) %MON trcstat_ptracer29_sd         =   1.1735048272850E-03
(PID.TID 0000.0001) %MON trcstat_ptracer29_del2       =   1.5831415633116E-06
(PID.TID 0000.0001) %MON trcstat_ptracer30_max        =   5.2847417166762E-02
(PID.TID 0000.0001) %MON trcstat_ptracer30_min        =  -5.7572047885998E-11
(PID.TID 0000.0001) %MON trcstat_ptracer30_mean       =   3.4052126994570E-05
(PID.TID 0000.0001) %MON trcstat_ptracer30_sd         =   3.5170133576888E-04
(PID.TID 0000.0001) %MON trcstat_ptracer30_del2       =   9.0269349785051E-07
(PID.TID 0000.0001) %MON trcstat_ptracer31_max        =   2.3745851929843E-14
(PID.TID 0000.0001) %MON trcstat_ptracer31_min        =  -1.1558177485912E-22
(PID.TID 0000.0001) %MON trcstat_ptracer31_mean       =   8.6879432052312E-17
(PID.TID 0000.0001) %MON trcstat_ptracer31_sd         =   3.2091480957828E-16
(PID.TID 0000.0001) %MON trcstat_ptracer31_del2       =   1.0596968122414E-19
(PID.TID 0000.0001) %MON trcstat_ptracer32_max        =   2.3745851929843E-14
(PID.TID 0000.0001) %MON trcstat_ptracer32_min        =  -1.1558177485912E-22
(PID.TID 0000.0001) %MON trcstat_ptracer32_mean       =   8.6879432052312E-17
(PID.TID 0000.0001) %MON trcstat_ptracer32_sd         =   3.2091480957828E-16
(PID.TID 0000.0001) %MON trcstat_ptracer32_del2       =   1.0596968122414E-19
(PID.TID 0000.0001) %MON trcstat_ptracer33_max        =   2.9071249451221E-03
(PID.TID 0000.0001) %MON trcstat_ptracer33_min        =  -8.6076946049229E-11
(PID.TID 0000.0001) %MON trcstat_ptracer33_mean       =   6.9643085599324E-06
(PID.TID 0000.0001) %MON trcstat_ptracer33_sd         =   4.2114302048125E-05
(PID.TID 0000.0001) %MON trcstat_ptracer33_del2       =   4.8489626762956E-08
(PID.TID 0000.0001) %MON trcstat_ptracer34_max        =   1.0464235559009E-03
(PID.TID 0000.0001) %MON trcstat_ptracer34_min        =  -1.4096930657040E-11
(PID.TID 0000.0001) %MON trcstat_ptracer34_mean       =   1.5143293550660E-06
(PID.TID 0000.0001) %MON trcstat_ptracer34_sd         =   1.0860659925913E-05
(PID.TID 0000.0001) %MON trcstat_ptracer34_del2       =   1.7621121978028E-08
(PID.TID 0000.0001) %MON trcstat_ptracer35_max        =   4.0272966349690E-14
(PID.TID 0000.0001) %MON trcstat_ptracer35_min        =  -1.9602668964182E-22
(PID.TID 0000.0001) %MON trcstat_ptracer35_mean       =   1.4734751675460E-16
(PID.TID 0000.0001) %MON trcstat_ptracer35_sd         =   5.4427151704898E-16
(PID.TID 0000.0001) %MON trcstat_ptracer35_del2       =   1.7972457931435E-19
(PID.TID 0000.0001) %MON trcstat_ptracer36_max        =   4.0272966349690E-14
(PID.TID 0000.0001) %MON trcstat_ptracer36_min        =  -1.9602668964182E-22
(PID.TID 0000.0001) %MON trcstat_ptracer36_mean       =   1.4734751675460E-16
(PID.TID 0000.0001) %MON trcstat_ptracer36_sd         =   5.4427151704898E-16
(PID.TID 0000.0001) %MON trcstat_ptracer36_del2       =   1.7972457931435E-19
(PID.TID 0000.0001) // =======================================================
(PID.TID 0000.0001) // End MONITOR ptracer field statistics
(PID.TID 0000.0001) // =======================================================
 Computing Diagnostic #    267  TRAC01       Counter:       1   Parms: SMR     MR      
 Computing Diagnostic #    282  TRAC02       Counter:       1   Parms: SMR     MR      
 Computing Diagnostic #    297  TRAC03       Counter:       1   Parms: SMR     MR      
 Computing Diagnostic #    312  TRAC04       Counter:       1   Parms: SMR     MR      
 Computing Diagnostic #    327  TRAC05       Counter:       1   Parms: SMR     MR      
 Computing Diagnostic #    342  TRAC06       Counter:       1   Parms: SMR     MR      
 Computing Diagnostic #    357  TRAC07       Counter:       1   Parms: SMR     MR      
 Computing Diagnostic #    372  TRAC08       Counter:       1   Parms: SMR     MR      
 Computing Diagnostic #    387  TRAC09       Counter:       1   Parms: SMR     MR      
 Computing Diagnostic #    402  TRAC10       Counter:       1   Parms: SMR     MR      
 Computing Diagnostic #    417  TRAC11       Counter:       1   Parms: SMR     MR      
 Computing Diagnostic #    432  TRAC12       Counter:       1   Parms: SMR     MR      
 Computing Diagnostic #    447  TRAC13       Counter:       1   Parms: SMR     MR      
 Computing Diagnostic #    462  TRAC14       Counter:       1   Parms: SMR     MR      
 Computing Diagnostic #    477  TRAC15       Counter:       1   Parms: SMR     MR      
 Computing Diagnostic #    492  TRAC16       Counter:       1   Parms: SMR     MR      
 Computing Diagnostic #    507  TRAC17       Counter:       1   Parms: SMR     MR      
 Computing Diagnostic #    522  TRAC18       Counter:       1   Parms: SMR     MR      
 Computing Diagnostic #    537  TRAC19       Counter:       1   Parms: SMR     MR      
 Computing Diagnostic #    552  TRAC20       Counter:       1   Parms: SMR     MR      
 Computing Diagnostic #    567  TRAC21       Counter:       1   Parms: SMR     MR      
 Computing Diagnostic #    582  TRAC22       Counter:       1   Parms: SMR     MR      
 Computing Diagnostic #    597  TRAC23       Counter:       1   Parms: SMR     MR      
 Computing Diagnostic #    612  TRAC24       Counter:       1   Parms: SMR     MR      
 Computing Diagnostic #    627  TRAC25       Counter:       1   Parms: SMR     MR      
 Computing Diagnostic #    642  TRAC26       Counter:       1   Parms: SMR     MR      
 Computing Diagnostic #    657  TRAC27       Counter:       1   Parms: SMR     MR      
 Computing Diagnostic #    672  TRAC28       Counter:       1   Parms: SMR     MR      
 Computing Diagnostic #    687  TRAC29       Counter:       1   Parms: SMR     MR      
 Computing Diagnostic #    702  TRAC30       Counter:       1   Parms: SMR     MR      
 Computing Diagnostic #    717  TRAC31       Counter:       1   Parms: SMR     MR      
 Computing Diagnostic #    732  TRAC32       Counter:       1   Parms: SMR     MR      
 Computing Diagnostic #    747  TRAC33       Counter:       1   Parms: SMR     MR      
 Computing Diagnostic #    762  TRAC34       Counter:       1   Parms: SMR     MR      
 Computing Diagnostic #    777  TRAC35       Counter:       1   Parms: SMR     MR      
 Computing Diagnostic #    792  TRAC36       Counter:       1   Parms: SMR     MR      
 Computing Diagnostic #   1020  PAR          Counter:       1   Parms: SMRP    MR      
 Computing Diagnostic #    810  PP           Counter:       1   Parms: SMRP    MR      
 Computing Diagnostic #    811  Nfix         Counter:       1   Parms: SMRP    MR      
 Computing Diagnostic #    812  Denit        Counter:       1   Parms: SMRP    MR      
 Computing Diagnostic #   1143  pH           Counter:       1   Parms: SMR     MR      
 Computing Diagnostic #   1144  pCO2         Counter:       1   Parms: SMRP    MR      
 Computing Diagnostic #   1108  PC0001       Counter:       1   Parms: SMRP    MR      
 Computing Diagnostic #    814  PChl0001     Counter:       1   Parms: SM P    MR      
 Computing Diagnostic #    815  VN0001       Counter:       1   Parms: SM P    MR      
 Computing Diagnostic #    816  MODE0001     Counter:       1   Parms: SM P    MR      
 Computing Diagnostic #    817  Fe_C0001     Counter:       1   Parms: SM P    MR      
 Computing Diagnostic #    818  exQc0001     Counter:       1   Parms: SM P    MR      
 Computing Diagnostic #    819  PCg0001      Counter:       1   Parms: SM P    MR      
 Computing Diagnostic #    820  CChl0001     Counter:       1   Parms: SM P    MR      
 Computing Diagnostic #    821  NChl0001     Counter:       1   Parms: SM P    MR      
 Computing Diagnostic #    822  NPho0001     Counter:       1   Parms: SM P    MR      
 Computing Diagnostic #    823  NSyn0001     Counter:       1   Parms: SM P    MR      
 Computing Diagnostic #    824  NPrn0001     Counter:       1   Parms: SM P    MR      
 Computing Diagnostic #    825  NRNA0001     Counter:       1   Parms: SM P    MR      
 Computing Diagnostic #    826  NDNA0001     Counter:       1   Parms: SM P    MR      
 Computing Diagnostic #    827  NSTO0001     Counter:       1   Parms: SM P    MR      
 Computing Diagnostic #    828  NEXC0001     Counter:       1   Parms: SM P    MR      
 Computing Diagnostic #    829  PRNA0001     Counter:       1   Parms: SM P    MR      
 Computing Diagnostic #    830  PDNA0001     Counter:       1   Parms: SM P    MR      
 Computing Diagnostic #    831  PTHY0001     Counter:       1   Parms: SM P    MR      
 Computing Diagnostic #    832  PCON0001     Counter:       1   Parms: SM P    MR      
 Computing Diagnostic #    833  PSTO0001     Counter:       1   Parms: SM P    MR      
 Computing Diagnostic #    834  PEXC0001     Counter:       1   Parms: SM P    MR      
 Computing Diagnostic #    835  FPHO0001     Counter:       1   Parms: SM P    MR      
 Computing Diagnostic #    836  FSTO0001     Counter:       1   Parms: SM P    MR      
 Computing Diagnostic #    837  FEXC0001     Counter:       1   Parms: SM P    MR      
 Computing Diagnostic #    844  CChl0002     Counter:       1   Parms: SM P    MR      
 Computing Diagnostic #    845  NChl0002     Counter:       1   Parms: SM P    MR      
 Computing Diagnostic #    846  NPho0002     Counter:       1   Parms: SM P    MR      
 Computing Diagnostic #    847  NSyn0002     Counter:       1   Parms: SM P    MR      
 Computing Diagnostic #    848  NPrn0002     Counter:       1   Parms: SM P    MR      
 Computing Diagnostic #    849  NRNA0002     Counter:       1   Parms: SM P    MR      
 Computing Diagnostic #    850  NDNA0002     Counter:       1   Parms: SM P    MR      
 Computing Diagnostic #    851  NSTO0002     Counter:       1   Parms: SM P    MR      
 Computing Diagnostic #    852  NEXC0002     Counter:       1   Parms: SM P    MR      
 Computing Diagnostic #    853  PRNA0002     Counter:       1   Parms: SM P    MR      
 Computing Diagnostic #    854  PDNA0002     Counter:       1   Parms: SM P    MR      
 Computing Diagnostic #    855  PTHY0002     Counter:       1   Parms: SM P    MR      
 Computing Diagnostic #    856  PCON0002     Counter:       1   Parms: SM P    MR      
 Computing Diagnostic #    857  PSTO0002     Counter:       1   Parms: SM P    MR      
 Computing Diagnostic #    858  PEXC0002     Counter:       1   Parms: SM P    MR      
 Computing Diagnostic #    859  FPHO0002     Counter:       1   Parms: SM P    MR      
 Computing Diagnostic #    860  FSTO0002     Counter:       1   Parms: SM P    MR      
 Computing Diagnostic #    861  FEXC0002     Counter:       1   Parms: SM P    MR      
 Computing Diagnostic #   1115  PC0002       Counter:       1   Parms: SMRP    MR      
 Computing Diagnostic #    838  PChl0002     Counter:       1   Parms: SM P    MR      
 Computing Diagnostic #    839  VN0002       Counter:       1   Parms: SM P    MR      
 Computing Diagnostic #    840  MODE0002     Counter:       1   Parms: SM P    MR      
 Computing Diagnostic #    841  Fe_C0002     Counter:       1   Parms: SM P    MR      
 Computing Diagnostic #    842  exQc0002     Counter:       1   Parms: SM P    MR      
 Computing Diagnostic #    843  PCg0002      Counter:       1   Parms: SM P    MR      
 Computing Diagnostic #   1172  GC_Tr01      Counter:       1   Parms: SMR     MR      
 Computing Diagnostic #   1173  GC_Tr02      Counter:       1   Parms: SMR     MR      
 Computing Diagnostic #   1174  GC_Tr03      Counter:       1   Parms: SMR     MR      
 Computing Diagnostic #   1175  GC_Tr04      Counter:       1   Parms: SMR     MR      
 Computing Diagnostic #   1176  GC_Tr05      Counter:       1   Parms: SMR     MR      
 Computing Diagnostic #   1177  GC_Tr06      Counter:       1   Parms: SMR     MR      
 Computing Diagnostic #   1178  GC_Tr07      Counter:       1   Parms: SMR     MR      
 Computing Diagnostic #   1179  GC_Tr08      Counter:       1   Parms: SMR     MR      
 Computing Diagnostic #   1180  GC_Tr09      Counter:       1   Parms: SMR     MR      
 Computing Diagnostic #   1181  GC_Tr10      Counter:       1   Parms: SMR     MR      
 Computing Diagnostic #   1182  GC_Tr11      Counter:       1   Parms: SMR     MR      
 Computing Diagnostic #   1183  GC_Tr12      Counter:       1   Parms: SMR     MR      
 Computing Diagnostic #   1184  GC_Tr13      Counter:       1   Parms: SMR     MR      
 Computing Diagnostic #   1185  GC_Tr14      Counter:       1   Parms: SMR     MR      
 Computing Diagnostic #   1186  GC_Tr15      Counter:       1   Parms: SMR     MR      
 Computing Diagnostic #   1187  GC_Tr16      Counter:       1   Parms: SMR     MR      
 Computing Diagnostic #   1188  GC_Tr17      Counter:       1   Parms: SMR     MR      
 Computing Diagnostic #   1189  GC_Tr18      Counter:       1   Parms: SMR     MR      
 Computing Diagnostic #   1190  GC_Tr19      Counter:       1   Parms: SMR     MR      
 Computing Diagnostic #   1191  GC_Tr20      Counter:       1   Parms: SMR     MR      
 Computing Diagnostic #   1192  GC_Tr21      Counter:       1   Parms: SMR     MR      
 Computing Diagnostic #   1193  GC_Tr22      Counter:       1   Parms: SMR     MR      
 Computing Diagnostic #   1194  GC_Tr23      Counter:       1   Parms: SMR     MR      
 Computing Diagnostic #   1195  GC_Tr24      Counter:       1   Parms: SMR     MR      
 Computing Diagnostic #   1196  GC_Tr25      Counter:       1   Parms: SMR     MR      
 Computing Diagnostic #   1197  GC_Tr26      Counter:       1   Parms: SMR     MR      
 Computing Diagnostic #   1198  GC_Tr27      Counter:       1   Parms: SMR     MR      
 Computing Diagnostic #   1199  GC_Tr28      Counter:       1   Parms: SMR     MR      
 Computing Diagnostic #   1200  GC_Tr29      Counter:       1   Parms: SMR     MR      
 Computing Diagnostic #   1201  GC_Tr30      Counter:       1   Parms: SMR     MR      
 Computing Diagnostic #   1202  GC_Tr31      Counter:       1   Parms: SMR     MR      
 Computing Diagnostic #   1203  GC_Tr32      Counter:       1   Parms: SMR     MR      
 Computing Diagnostic #   1204  GC_Tr33      Counter:       1   Parms: SMR     MR      
 Computing Diagnostic #   1205  GC_Tr34      Counter:       1   Parms: SMR     MR      
 Computing Diagnostic #   1206  GC_Tr35      Counter:       1   Parms: SMR     MR      
 Computing Diagnostic #   1207  GC_Tr36      Counter:       1   Parms: SMR     MR      
(PID.TID 0000.0001) // =======================================================
(PID.TID 0000.0001) // Begin MONITOR EXF statistics
(PID.TID 0000.0001) // =======================================================
(PID.TID 0000.0001) %MON exf_tsnumber                 =                     2
(PID.TID 0000.0001) %MON exf_time_sec                 =   7.2000000000000E+03
(PID.TID 0000.0001) %MON exf_ustress_max              =   0.0000000000000E+00
(PID.TID 0000.0001) %MON exf_ustress_min              =   0.0000000000000E+00
(PID.TID 0000.0001) %MON exf_ustress_mean             =   0.0000000000000E+00
(PID.TID 0000.0001) %MON exf_ustress_sd               =   0.0000000000000E+00
(PID.TID 0000.0001) %MON exf_ustress_del2             =   0.0000000000000E+00
(PID.TID 0000.0001) %MON exf_vstress_max              =   0.0000000000000E+00
(PID.TID 0000.0001) %MON exf_vstress_min              =   0.0000000000000E+00
(PID.TID 0000.0001) %MON exf_vstress_mean             =   0.0000000000000E+00
(PID.TID 0000.0001) %MON exf_vstress_sd               =   0.0000000000000E+00
(PID.TID 0000.0001) %MON exf_vstress_del2             =   0.0000000000000E+00
(PID.TID 0000.0001) %MON exf_hflux_max                =   0.0000000000000E+00
(PID.TID 0000.0001) %MON exf_hflux_min                =   0.0000000000000E+00
(PID.TID 0000.0001) %MON exf_hflux_mean               =   0.0000000000000E+00
(PID.TID 0000.0001) %MON exf_hflux_sd                 =   0.0000000000000E+00
(PID.TID 0000.0001) %MON exf_hflux_del2               =   0.0000000000000E+00
(PID.TID 0000.0001) %MON exf_sflux_max                =   0.0000000000000E+00
(PID.TID 0000.0001) %MON exf_sflux_min                =   0.0000000000000E+00
(PID.TID 0000.0001) %MON exf_sflux_mean               =   0.0000000000000E+00
(PID.TID 0000.0001) %MON exf_sflux_sd                 =   0.0000000000000E+00
(PID.TID 0000.0001) %MON exf_sflux_del2               =   0.0000000000000E+00
(PID.TID 0000.0001) %MON exf_uwind_max                =   0.0000000000000E+00
(PID.TID 0000.0001) %MON exf_uwind_min                =   0.0000000000000E+00
(PID.TID 0000.0001) %MON exf_uwind_mean               =   0.0000000000000E+00
(PID.TID 0000.0001) %MON exf_uwind_sd                 =   0.0000000000000E+00
(PID.TID 0000.0001) %MON exf_uwind_del2               =   0.0000000000000E+00
(PID.TID 0000.0001) %MON exf_vwind_max                =   0.0000000000000E+00
(PID.TID 0000.0001) %MON exf_vwind_min                =   0.0000000000000E+00
(PID.TID 0000.0001) %MON exf_vwind_mean               =   0.0000000000000E+00
(PID.TID 0000.0001) %MON exf_vwind_sd                 =   0.0000000000000E+00
(PID.TID 0000.0001) %MON exf_vwind_del2               =   0.0000000000000E+00
(PID.TID 0000.0001) %MON exf_wspeed_max               =   0.0000000000000E+00
(PID.TID 0000.0001) %MON exf_wspeed_min               =   0.0000000000000E+00
(PID.TID 0000.0001) %MON exf_wspeed_mean              =   0.0000000000000E+00
(PID.TID 0000.0001) %MON exf_wspeed_sd                =   0.0000000000000E+00
(PID.TID 0000.0001) %MON exf_wspeed_del2              =   0.0000000000000E+00
(PID.TID 0000.0001) %MON exf_evap_max                 =   0.0000000000000E+00
(PID.TID 0000.0001) %MON exf_evap_min                 =   0.0000000000000E+00
(PID.TID 0000.0001) %MON exf_evap_mean                =   0.0000000000000E+00
(PID.TID 0000.0001) %MON exf_evap_sd                  =   0.0000000000000E+00
(PID.TID 0000.0001) %MON exf_evap_del2                =   0.0000000000000E+00
(PID.TID 0000.0001) // =======================================================
(PID.TID 0000.0001) // End MONITOR EXF statistics
(PID.TID 0000.0001) // =======================================================
(PID.TID 0000.0001) // =======================================================
(PID.TID 0000.0001) // Begin MONITOR RADTRANS statistics
(PID.TID 0000.0001) // =======================================================
(PID.TID 0000.0001) %MON RT_tsnumber                  =                     2
(PID.TID 0000.0001) %MON RT_time_sec                  =   7.2000000000000E+03
(PID.TID 0000.0001) %MON RT_Ed001_max                 =   2.7637284742461E+00
(PID.TID 0000.0001) %MON RT_Ed001_min                 =   2.5805624244796E-37
(PID.TID 0000.0001) %MON RT_Ed001_mean                =   9.5092868990735E-01
(PID.TID 0000.0001) %MON RT_Ed001_sd                  =   6.8303369555608E-01
(PID.TID 0000.0001) %MON RT_Ed001_del2                =   2.4694431351588E-04
(PID.TID 0000.0001) %MON RT_Ed002_max                 =   7.1660794470045E+00
(PID.TID 0000.0001) %MON RT_Ed002_min                 =   5.1611248489592E-37
(PID.TID 0000.0001) %MON RT_Ed002_mean                =   2.4689009011123E+00
(PID.TID 0000.0001) %MON RT_Ed002_sd                  =   1.7473022053043E+00
(PID.TID 0000.0001) %MON RT_Ed002_del2                =   6.2693946688563E-04
(PID.TID 0000.0001) %MON RT_Ed003_max                 =   8.7421509477827E+00
(PID.TID 0000.0001) %MON RT_Ed003_min                 =   5.1611248489592E-37
(PID.TID 0000.0001) %MON RT_Ed003_mean                =   2.9979627548304E+00
(PID.TID 0000.0001) %MON RT_Ed003_sd                  =   2.1077351096550E+00
(PID.TID 0000.0001) %MON RT_Ed003_del2                =   7.6404252123950E-04
(PID.TID 0000.0001) %MON RT_Ed004_max                 =   9.2548017104467E+00
(PID.TID 0000.0001) %MON RT_Ed004_min                 =   5.1611248489592E-37
(PID.TID 0000.0001) %MON RT_Ed004_mean                =   3.1841221634436E+00
(PID.TID 0000.0001) %MON RT_Ed004_sd                  =   2.2163829120503E+00
(PID.TID 0000.0001) %MON RT_Ed004_del2                =   8.0124738522456E-04
(PID.TID 0000.0001) %MON RT_Ed005_max                 =   9.3292856560813E+00
(PID.TID 0000.0001) %MON RT_Ed005_min                 =   5.1611255178457E-37
(PID.TID 0000.0001) %MON RT_Ed005_mean                =   3.2176144085027E+00
(PID.TID 0000.0001) %MON RT_Ed005_sd                  =   2.2195829802480E+00
(PID.TID 0000.0001) %MON RT_Ed005_del2                =   7.9674869905518E-04
(PID.TID 0000.0001) %MON RT_Ed006_max                 =   9.1606693082386E+00
(PID.TID 0000.0001) %MON RT_Ed006_min                 =   5.1611257408078E-37
(PID.TID 0000.0001) %MON RT_Ed006_mean                =   3.1758818780260E+00
(PID.TID 0000.0001) %MON RT_Ed006_sd                  =   2.1771173695480E+00
(PID.TID 0000.0001) %MON RT_Ed006_del2                =   7.8056408363017E-04
(PID.TID 0000.0001) %MON RT_Ed007_max                 =   9.2898615095350E+00
(PID.TID 0000.0001) %MON RT_Ed007_min                 =   5.1611259637700E-37
(PID.TID 0000.0001) %MON RT_Ed007_mean                =   3.2278426549772E+00
(PID.TID 0000.0001) %MON RT_Ed007_sd                  =   2.2032491923760E+00
(PID.TID 0000.0001) %MON RT_Ed007_del2                =   7.8806750167680E-04
(PID.TID 0000.0001) %MON RT_Ed008_max                 =   9.1957852151659E+00
(PID.TID 0000.0001) %MON RT_Ed008_min                 =   5.1611268556186E-37
(PID.TID 0000.0001) %MON RT_Ed008_mean                =   3.1813748285323E+00
(PID.TID 0000.0001) %MON RT_Ed008_sd                  =   2.1655109113033E+00
(PID.TID 0000.0001) %MON RT_Ed008_del2                =   7.7276839910590E-04
(PID.TID 0000.0001) %MON RT_Ed009_max                 =   8.7383647653792E+00
(PID.TID 0000.0001) %MON RT_Ed009_min                 =   5.1611315378239E-37
(PID.TID 0000.0001) %MON RT_Ed009_mean                =   3.0233080504567E+00
(PID.TID 0000.0001) %MON RT_Ed009_sd                  =   2.0484331816934E+00
(PID.TID 0000.0001) %MON RT_Ed009_del2                =   7.3170289716022E-04
(PID.TID 0000.0001) %MON RT_Ed010_max                 =   8.6712094068527E+00
(PID.TID 0000.0001) %MON RT_Ed010_min                 =   5.1611353281805E-37
(PID.TID 0000.0001) %MON RT_Ed010_mean                =   3.0170026048276E+00
(PID.TID 0000.0001) %MON RT_Ed010_sd                  =   2.0392289781647E+00
(PID.TID 0000.0001) %MON RT_Ed010_del2                =   7.2740372637896E-04
(PID.TID 0000.0001) %MON RT_Ed011_max                 =   8.2022061440680E+00
(PID.TID 0000.0001) %MON RT_Ed011_min                 =   5.1611388955750E-37
(PID.TID 0000.0001) %MON RT_Ed011_mean                =   2.8458294025750E+00
(PID.TID 0000.0001) %MON RT_Ed011_sd                  =   1.9152370195328E+00
(PID.TID 0000.0001) %MON RT_Ed011_del2                =   6.8992535077261E-04
(PID.TID 0000.0001) %MON RT_Ed012_max                 =   7.4828342384762E+00
(PID.TID 0000.0001) %MON RT_Ed012_min                 =   5.1611411251966E-37
(PID.TID 0000.0001) %MON RT_Ed012_mean                =   2.5979640092980E+00
(PID.TID 0000.0001) %MON RT_Ed012_sd                  =   1.7522167819835E+00
(PID.TID 0000.0001) %MON RT_Ed012_del2                =   6.2648264595449E-04
(PID.TID 0000.0001) %MON RT_Ed013_max                 =   3.6970879971981E+00
(PID.TID 0000.0001) %MON RT_Ed013_min                 =   5.1611482599856E-37
(PID.TID 0000.0001) %MON RT_Ed013_mean                =   1.2781497841594E+00
(PID.TID 0000.0001) %MON RT_Ed013_sd                  =   8.5793110860680E-01
(PID.TID 0000.0001) %MON RT_Ed013_del2                =   3.0893295979512E-04
(PID.TID 0000.0001) %MON RT_Es001_max                 =   2.9258111357689E+00
(PID.TID 0000.0001) %MON RT_Es001_min                 =   4.6922186212765E-37
(PID.TID 0000.0001) %MON RT_Es001_mean                =   1.9221746632549E+00
(PID.TID 0000.0001) %MON RT_Es001_sd                  =   7.2412774530946E-01
(PID.TID 0000.0001) %MON RT_Es001_del2                =   1.7542884366280E-04
(PID.TID 0000.0001) %MON RT_Es002_max                 =   6.9803641438484E+00
(PID.TID 0000.0001) %MON RT_Es002_min                 =   9.3844372425531E-37
(PID.TID 0000.0001) %MON RT_Es002_mean                =   4.5356933602832E+00
(PID.TID 0000.0001) %MON RT_Es002_sd                  =   1.7198676985347E+00
(PID.TID 0000.0001) %MON RT_Es002_del2                =   4.3318618266611E-04
(PID.TID 0000.0001) %MON RT_Es003_max                 =   8.0268582993084E+00
(PID.TID 0000.0001) %MON RT_Es003_min                 =   9.3844372425531E-37
(PID.TID 0000.0001) %MON RT_Es003_mean                =   5.1679713638116E+00
(PID.TID 0000.0001) %MON RT_Es003_sd                  =   1.9758783513495E+00
(PID.TID 0000.0001) %MON RT_Es003_del2                =   5.2090592638252E-04
(PID.TID 0000.0001) %MON RT_Es004_max                 =   8.0644462956323E+00
(PID.TID 0000.0001) %MON RT_Es004_min                 =   9.3844376884774E-37
(PID.TID 0000.0001) %MON RT_Es004_mean                =   5.1505628828687E+00
(PID.TID 0000.0001) %MON RT_Es004_sd                  =   1.9824034397960E+00
(PID.TID 0000.0001) %MON RT_Es004_del2                =   5.3885279197004E-04
(PID.TID 0000.0001) %MON RT_Es005_max                 =   7.7762885941399E+00
(PID.TID 0000.0001) %MON RT_Es005_min                 =   9.3844381344017E-37
(PID.TID 0000.0001) %MON RT_Es005_mean                =   4.9329652975189E+00
(PID.TID 0000.0001) %MON RT_Es005_sd                  =   1.9117838647878E+00
(PID.TID 0000.0001) %MON RT_Es005_del2                =   5.3117464680250E-04
(PID.TID 0000.0001) %MON RT_Es006_max                 =   7.3730856087473E+00
(PID.TID 0000.0001) %MON RT_Es006_min                 =   9.3844394721746E-37
(PID.TID 0000.0001) %MON RT_Es006_mean                =   4.6470934767429E+00
(PID.TID 0000.0001) %MON RT_Es006_sd                  =   1.8163737235821E+00
(PID.TID 0000.0001) %MON RT_Es006_del2                =   5.1542258235014E-04
(PID.TID 0000.0001) %MON RT_Es007_max                 =   7.2590486778153E+00
(PID.TID 0000.0001) %MON RT_Es007_min                 =   9.3844403640233E-37
(PID.TID 0000.0001) %MON RT_Es007_mean                =   4.5511364623837E+00
(PID.TID 0000.0001) %MON RT_Es007_sd                  =   1.7937625324318E+00
(PID.TID 0000.0001) %MON RT_Es007_del2                =   5.1697026699998E-04
(PID.TID 0000.0001) %MON RT_Es008_max                 =   7.0180817815993E+00
(PID.TID 0000.0001) %MON RT_Es008_min                 =   9.3844421477205E-37
(PID.TID 0000.0001) %MON RT_Es008_mean                =   4.3710259929405E+00
(PID.TID 0000.0001) %MON RT_Es008_sd                  =   1.7376609272396E+00
(PID.TID 0000.0001) %MON RT_Es008_del2                =   5.0707272887325E-04
(PID.TID 0000.0001) %MON RT_Es009_max                 =   6.5689779202143E+00
(PID.TID 0000.0001) %MON RT_Es009_min                 =   9.3844497284338E-37
(PID.TID 0000.0001) %MON RT_Es009_mean                =   4.0587069931546E+00
(PID.TID 0000.0001) %MON RT_Es009_sd                  =   1.6230513733695E+00
(PID.TID 0000.0001) %MON RT_Es009_del2                =   4.8113795573250E-04
(PID.TID 0000.0001) %MON RT_Es010_max                 =   6.4141246265835E+00
(PID.TID 0000.0001) %MON RT_Es010_min                 =   9.3844550795255E-37
(PID.TID 0000.0001) %MON RT_Es010_mean                =   3.9763235648846E+00
(PID.TID 0000.0001) %MON RT_Es010_sd                  =   1.5879867881780E+00
(PID.TID 0000.0001) %MON RT_Es010_del2                =   4.7527513908840E-04
(PID.TID 0000.0001) %MON RT_Es011_max                 =   6.0375373906559E+00
(PID.TID 0000.0001) %MON RT_Es011_min                 =   9.3844590928443E-37
(PID.TID 0000.0001) %MON RT_Es011_mean                =   3.7217897761414E+00
(PID.TID 0000.0001) %MON RT_Es011_sd                  =   1.4842693810004E+00
(PID.TID 0000.0001) %MON RT_Es011_del2                =   4.5536012197365E-04
(PID.TID 0000.0001) %MON RT_Es012_max                 =   5.4182619425986E+00
(PID.TID 0000.0001) %MON RT_Es012_min                 =   9.3844648898604E-37
(PID.TID 0000.0001) %MON RT_Es012_mean                =   3.3338885308365E+00
(PID.TID 0000.0001) %MON RT_Es012_sd                  =   1.3448406545608E+00
(PID.TID 0000.0001) %MON RT_Es012_del2                =   4.0901533862426E-04
(PID.TID 0000.0001) %MON RT_Es013_max                 =   2.6721567862564E+00
(PID.TID 0000.0001) %MON RT_Es013_min                 =   9.3844742542709E-37
(PID.TID 0000.0001) %MON RT_Es013_mean                =   1.6316543350563E+00
(PID.TID 0000.0001) %MON RT_Es013_sd                  =   6.5789657666423E-01
(PID.TID 0000.0001) %MON RT_Es013_del2                =   2.0395702294147E-04
(PID.TID 0000.0001) // =======================================================
(PID.TID 0000.0001) // End MONITOR RADTRANS statistics
(PID.TID 0000.0001) // =======================================================
(PID.TID 0000.0001) // =======================================================
(PID.TID 0000.0001) // Begin MONITOR DARWIN statistics
(PID.TID 0000.0001) // =======================================================
(PID.TID 0000.0001) %MON darwin_tsnumber              =                     2
(PID.TID 0000.0001) %MON darwin_time_sec              =   7.2000000000000E+03
(PID.TID 0000.0001) %MON darwin_surfPAR_max           =   0.0000000000000E+00
(PID.TID 0000.0001) %MON darwin_surfPAR_min           =   0.0000000000000E+00
(PID.TID 0000.0001) %MON darwin_surfPAR_mean          =   0.0000000000000E+00
(PID.TID 0000.0001) %MON darwin_surfPAR_sd            =   0.0000000000000E+00
(PID.TID 0000.0001) %MON darwin_surfPAR_del2          =   0.0000000000000E+00
(PID.TID 0000.0001) %MON darwin_inputFe_max           =   4.8131532722102E-09
(PID.TID 0000.0001) %MON darwin_inputFe_min           =   7.4766410819824E-12
(PID.TID 0000.0001) %MON darwin_inputFe_mean          =   4.3471115237579E-10
(PID.TID 0000.0001) %MON darwin_inputFe_sd            =   5.1796468130503E-10
(PID.TID 0000.0001) %MON darwin_inputFe_del2          =   1.6351906453885E-13
(PID.TID 0000.0001) %MON darwin_iceFrac_max           =   1.0000000000000E+00
(PID.TID 0000.0001) %MON darwin_iceFrac_min           =   0.0000000000000E+00
(PID.TID 0000.0001) %MON darwin_iceFrac_mean          =   6.0942554454302E-03
(PID.TID 0000.0001) %MON darwin_iceFrac_sd            =   6.6045672487107E-02
(PID.TID 0000.0001) %MON darwin_iceFrac_del2          =   2.8024016097774E-04
(PID.TID 0000.0001) %MON darwin_windSpeed_max         =   1.4271455049515E+01
(PID.TID 0000.0001) %MON darwin_windSpeed_min         =   2.1542999247710E+00
(PID.TID 0000.0001) %MON darwin_windSpeed_mean        =   7.6790597684210E+00
(PID.TID 0000.0001) %MON darwin_windSpeed_sd          =   2.3580324283058E+00
(PID.TID 0000.0001) %MON darwin_windSpeed_del2        =   8.2320983703868E-04
(PID.TID 0000.0001) %MON darwin_atmospCO2_max         =   2.7800000000000E-04
(PID.TID 0000.0001) %MON darwin_atmospCO2_min         =   2.7800000000000E-04
(PID.TID 0000.0001) %MON darwin_atmospCO2_mean        =   2.7800000000000E-04
(PID.TID 0000.0001) %MON darwin_atmospCO2_sd          =   5.4210108624275E-19
(PID.TID 0000.0001) %MON darwin_atmospCO2_del2        =   0.0000000000000E+00
(PID.TID 0000.0001) %MON darwin_ventHe3_max           =   0.0000000000000E+00
(PID.TID 0000.0001) %MON darwin_ventHe3_min           =   0.0000000000000E+00
(PID.TID 0000.0001) %MON darwin_ventHe3_mean          =   0.0000000000000E+00
(PID.TID 0000.0001) %MON darwin_ventHe3_sd            =   0.0000000000000E+00
(PID.TID 0000.0001) %MON darwin_ventHe3_del2          =   0.0000000000000E+00
(PID.TID 0000.0001) %MON darwin_DOCrunoff_max         =   0.0000000000000E+00
(PID.TID 0000.0001) %MON darwin_DOCrunoff_min         =   0.0000000000000E+00
(PID.TID 0000.0001) %MON darwin_DOCrunoff_mean        =   0.0000000000000E+00
(PID.TID 0000.0001) %MON darwin_DOCrunoff_sd          =   0.0000000000000E+00
(PID.TID 0000.0001) %MON darwin_DOCrunoff_del2        =   0.0000000000000E+00
(PID.TID 0000.0001) %MON darwin_DONrunoff_max         =   0.0000000000000E+00
(PID.TID 0000.0001) %MON darwin_DONrunoff_min         =   0.0000000000000E+00
(PID.TID 0000.0001) %MON darwin_DONrunoff_mean        =   0.0000000000000E+00
(PID.TID 0000.0001) %MON darwin_DONrunoff_sd          =   0.0000000000000E+00
(PID.TID 0000.0001) %MON darwin_DONrunoff_del2        =   0.0000000000000E+00
(PID.TID 0000.0001) %MON darwin_DOPrunoff_max         =   0.0000000000000E+00
(PID.TID 0000.0001) %MON darwin_DOPrunoff_min         =   0.0000000000000E+00
(PID.TID 0000.0001) %MON darwin_DOPrunoff_mean        =   0.0000000000000E+00
(PID.TID 0000.0001) %MON darwin_DOPrunoff_sd          =   0.0000000000000E+00
(PID.TID 0000.0001) %MON darwin_DOPrunoff_del2        =   0.0000000000000E+00
(PID.TID 0000.0001) %MON darwin_DINrunoff_max         =   0.0000000000000E+00
(PID.TID 0000.0001) %MON darwin_DINrunoff_min         =   0.0000000000000E+00
(PID.TID 0000.0001) %MON darwin_DINrunoff_mean        =   0.0000000000000E+00
(PID.TID 0000.0001) %MON darwin_DINrunoff_sd          =   0.0000000000000E+00
(PID.TID 0000.0001) %MON darwin_DINrunoff_del2        =   0.0000000000000E+00
(PID.TID 0000.0001) %MON darwin_IPrunoff_max          =   0.0000000000000E+00
(PID.TID 0000.0001) %MON darwin_IPrunoff_min          =   0.0000000000000E+00
(PID.TID 0000.0001) %MON darwin_IPrunoff_mean         =   0.0000000000000E+00
(PID.TID 0000.0001) %MON darwin_IPrunoff_sd           =   0.0000000000000E+00
(PID.TID 0000.0001) %MON darwin_IPrunoff_del2         =   0.0000000000000E+00
(PID.TID 0000.0001) %MON darwin_DSirunoff_max         =   0.0000000000000E+00
(PID.TID 0000.0001) %MON darwin_DSirunoff_min         =   0.0000000000000E+00
(PID.TID 0000.0001) %MON darwin_DSirunoff_mean        =   0.0000000000000E+00
(PID.TID 0000.0001) %MON darwin_DSirunoff_sd          =   0.0000000000000E+00
(PID.TID 0000.0001) %MON darwin_DSirunoff_del2        =   0.0000000000000E+00
(PID.TID 0000.0001) %MON darwin_POCrunoff_max         =   0.0000000000000E+00
(PID.TID 0000.0001) %MON darwin_POCrunoff_min         =   0.0000000000000E+00
(PID.TID 0000.0001) %MON darwin_POCrunoff_mean        =   0.0000000000000E+00
(PID.TID 0000.0001) %MON darwin_POCrunoff_sd          =   0.0000000000000E+00
(PID.TID 0000.0001) %MON darwin_POCrunoff_del2        =   0.0000000000000E+00
(PID.TID 0000.0001) %MON darwin_POPrunoff_max         =   0.0000000000000E+00
(PID.TID 0000.0001) %MON darwin_POPrunoff_min         =   0.0000000000000E+00
(PID.TID 0000.0001) %MON darwin_POPrunoff_mean        =   0.0000000000000E+00
(PID.TID 0000.0001) %MON darwin_POPrunoff_sd          =   0.0000000000000E+00
(PID.TID 0000.0001) %MON darwin_POPrunoff_del2        =   0.0000000000000E+00
(PID.TID 0000.0001) %MON darwin_PONrunoff_max         =   0.0000000000000E+00
(PID.TID 0000.0001) %MON darwin_PONrunoff_min         =   0.0000000000000E+00
(PID.TID 0000.0001) %MON darwin_PONrunoff_mean        =   0.0000000000000E+00
(PID.TID 0000.0001) %MON darwin_PONrunoff_sd          =   0.0000000000000E+00
(PID.TID 0000.0001) %MON darwin_PONrunoff_del2        =   0.0000000000000E+00
(PID.TID 0000.0001) %MON darwin_DICrunoff_max         =   0.0000000000000E+00
(PID.TID 0000.0001) %MON darwin_DICrunoff_min         =   0.0000000000000E+00
(PID.TID 0000.0001) %MON darwin_DICrunoff_mean        =   0.0000000000000E+00
(PID.TID 0000.0001) %MON darwin_DICrunoff_sd          =   0.0000000000000E+00
(PID.TID 0000.0001) %MON darwin_DICrunoff_del2        =   0.0000000000000E+00
(PID.TID 0000.0001) // =======================================================
(PID.TID 0000.0001) // End MONITOR DARWIN statistics
(PID.TID 0000.0001) // =======================================================
(PID.TID 0000.0001) // =======================================================
(PID.TID 0000.0001) // Begin MONITOR dynamic field statistics
(PID.TID 0000.0001) // =======================================================
(PID.TID 0000.0001) %MON time_tsnumber                =                     3
(PID.TID 0000.0001) %MON time_secondsf                =   1.0800000000000E+04
(PID.TID 0000.0001) %MON dynstat_eta_max              =   0.0000000000000E+00
(PID.TID 0000.0001) %MON dynstat_eta_min              =   0.0000000000000E+00
(PID.TID 0000.0001) %MON dynstat_eta_mean             =   0.0000000000000E+00
(PID.TID 0000.0001) %MON dynstat_eta_sd               =   0.0000000000000E+00
(PID.TID 0000.0001) %MON dynstat_eta_del2             =   0.0000000000000E+00
(PID.TID 0000.0001) %MON dynstat_uvel_max             =   7.8500951081514E-01
(PID.TID 0000.0001) %MON dynstat_uvel_min             =  -8.1677708774805E-01
(PID.TID 0000.0001) %MON dynstat_uvel_mean            =   2.3319899558026E-03
(PID.TID 0000.0001) %MON dynstat_uvel_sd              =   2.2851955347877E-02
(PID.TID 0000.0001) %MON dynstat_uvel_del2            =   2.5488694676996E-05
(PID.TID 0000.0001) %MON dynstat_vvel_max             =   1.2975457906723E+00
(PID.TID 0000.0001) %MON dynstat_vvel_min             =  -8.7210071552545E-01
(PID.TID 0000.0001) %MON dynstat_vvel_mean            =  -1.7067523626691E-05
(PID.TID 0000.0001) %MON dynstat_vvel_sd              =   1.1668763447104E-02
(PID.TID 0000.0001) %MON dynstat_vvel_del2            =   2.3682690608333E-05
(PID.TID 0000.0001) %MON dynstat_wvel_max             =   5.2057552784390E-04
(PID.TID 0000.0001) %MON dynstat_wvel_min             =  -6.2682385032531E-04
(PID.TID 0000.0001) %MON dynstat_wvel_mean            =   2.1811717702129E-14
(PID.TID 0000.0001) %MON dynstat_wvel_sd              =   1.0274595867304E-05
(PID.TID 0000.0001) %MON dynstat_wvel_del2            =   1.8906708750008E-08
(PID.TID 0000.0001) %MON dynstat_theta_max            =   3.1811811208725E+01
(PID.TID 0000.0001) %MON dynstat_theta_min            =  -2.6705707013607E+00
(PID.TID 0000.0001) %MON dynstat_theta_mean           =   3.6068704244703E+00
(PID.TID 0000.0001) %MON dynstat_theta_sd             =   4.4528579640392E+00
(PID.TID 0000.0001) %MON dynstat_theta_del2           =   3.6279631749898E-04
(PID.TID 0000.0001) %MON dynstat_salt_max             =   3.9533718109131E+01
(PID.TID 0000.0001) %MON dynstat_salt_min             =   2.6509908676147E+01
(PID.TID 0000.0001) %MON dynstat_salt_mean            =   3.4722156720416E+01
(PID.TID 0000.0001) %MON dynstat_salt_sd              =   3.6501661205502E-01
(PID.TID 0000.0001) %MON dynstat_salt_del2            =   6.9285532272240E-05
(PID.TID 0000.0001) %MON dynstat_sst_max              =   3.1811811208725E+01
(PID.TID 0000.0001) %MON dynstat_sst_min              =  -1.9905042946339E+00
(PID.TID 0000.0001) %MON dynstat_sst_mean             =   1.9168948025842E+01
(PID.TID 0000.0001) %MON dynstat_sst_sd               =   9.5447125080671E+00
(PID.TID 0000.0001) %MON dynstat_sst_del2             =   2.1724405943826E-03
(PID.TID 0000.0001) %MON dynstat_sss_max              =   3.9533718109131E+01
(PID.TID 0000.0001) %MON dynstat_sss_min              =   2.6509908676147E+01
(PID.TID 0000.0001) %MON dynstat_sss_mean             =   3.4861274121728E+01
(PID.TID 0000.0001) %MON dynstat_sss_sd               =   1.0801334850452E+00
(PID.TID 0000.0001) %MON dynstat_sss_del2             =   5.9642749467312E-04
(PID.TID 0000.0001) %MON forcing_qnet_max             =   0.0000000000000E+00
(PID.TID 0000.0001) %MON forcing_qnet_min             =   0.0000000000000E+00
(PID.TID 0000.0001) %MON forcing_qnet_mean            =   0.0000000000000E+00
(PID.TID 0000.0001) %MON forcing_qnet_sd              =   0.0000000000000E+00
(PID.TID 0000.0001) %MON forcing_qnet_del2            =   0.0000000000000E+00
(PID.TID 0000.0001) %MON forcing_qsw_max              =   0.0000000000000E+00
(PID.TID 0000.0001) %MON forcing_qsw_min              =   0.0000000000000E+00
(PID.TID 0000.0001) %MON forcing_qsw_mean             =   0.0000000000000E+00
(PID.TID 0000.0001) %MON forcing_qsw_sd               =   0.0000000000000E+00
(PID.TID 0000.0001) %MON forcing_qsw_del2             =   0.0000000000000E+00
(PID.TID 0000.0001) %MON forcing_empmr_max            =   0.0000000000000E+00
(PID.TID 0000.0001) %MON forcing_empmr_min            =   0.0000000000000E+00
(PID.TID 0000.0001) %MON forcing_empmr_mean           =   0.0000000000000E+00
(PID.TID 0000.0001) %MON forcing_empmr_sd             =   0.0000000000000E+00
(PID.TID 0000.0001) %MON forcing_empmr_del2           =   0.0000000000000E+00
(PID.TID 0000.0001) %MON forcing_fu_max               =   0.0000000000000E+00
(PID.TID 0000.0001) %MON forcing_fu_min               =   0.0000000000000E+00
(PID.TID 0000.0001) %MON forcing_fu_mean              =   0.0000000000000E+00
(PID.TID 0000.0001) %MON forcing_fu_sd                =   0.0000000000000E+00
(PID.TID 0000.0001) %MON forcing_fu_del2              =   0.0000000000000E+00
(PID.TID 0000.0001) %MON forcing_fv_max               =   0.0000000000000E+00
(PID.TID 0000.0001) %MON forcing_fv_min               =   0.0000000000000E+00
(PID.TID 0000.0001) %MON forcing_fv_mean              =   0.0000000000000E+00
(PID.TID 0000.0001) %MON forcing_fv_sd                =   0.0000000000000E+00
(PID.TID 0000.0001) %MON forcing_fv_del2              =   0.0000000000000E+00
(PID.TID 0000.0001) %MON trAdv_CFL_u_max              =   4.4337443033886E-02
(PID.TID 0000.0001) %MON trAdv_CFL_v_max              =   4.3591866208711E-02
(PID.TID 0000.0001) %MON trAdv_CFL_w_max              =   7.0458909322042E-02
(PID.TID 0000.0001) %MON advcfl_uvel_max              =   4.3017102930156E-02
(PID.TID 0000.0001) %MON advcfl_vvel_max              =   4.2015389499177E-02
(PID.TID 0000.0001) %MON advcfl_wvel_max              =   8.3292084455024E-02
(PID.TID 0000.0001) %MON advcfl_W_hf_max              =   9.3703595011903E-02
(PID.TID 0000.0001) %MON pe_b_mean                    =   0.0000000000000E+00
(PID.TID 0000.0001) %MON ke_max                       =   6.8335447069308E-01
(PID.TID 0000.0001) %MON ke_mean                      =   3.1834613624378E-04
(PID.TID 0000.0001) %MON ke_vol                       =   1.3258927395736E+18
(PID.TID 0000.0001) %MON vort_r_min                   =  -1.3250010937637E-05
(PID.TID 0000.0001) %MON vort_r_max                   =   1.5933204468912E-05
(PID.TID 0000.0001) %MON vort_a_mean                  =  -2.1443554611098E-05
(PID.TID 0000.0001) %MON vort_a_sd                    =   7.3250397729609E-05
(PID.TID 0000.0001) %MON vort_p_mean                  =  -2.3136237666214E-05
(PID.TID 0000.0001) %MON vort_p_sd                    =   8.5528169644786E-05
(PID.TID 0000.0001) %MON surfExpan_theta_mean         =  -5.5139914822221E-08
(PID.TID 0000.0001) %MON surfExpan_salt_mean          =   6.9811319503682E-09
(PID.TID 0000.0001) // =======================================================
(PID.TID 0000.0001) // End MONITOR dynamic field statistics
(PID.TID 0000.0001) // =======================================================
(PID.TID 0000.0001) // =======================================================
(PID.TID 0000.0001) // Begin MONITOR ptracer field statistics
(PID.TID 0000.0001) // =======================================================
(PID.TID 0000.0001) %MON trcstat_ptracer01_max        =   2.4112464801558E+03
(PID.TID 0000.0001) %MON trcstat_ptracer01_min        =   1.7252059992210E+03
(PID.TID 0000.0001) %MON trcstat_ptracer01_mean       =   2.2529004561782E+03
(PID.TID 0000.0001) %MON trcstat_ptracer01_sd         =   8.1238913437648E+01
(PID.TID 0000.0001) %MON trcstat_ptracer01_del2       =   8.1429988112309E-03
(PID.TID 0000.0001) %MON trcstat_ptracer02_max        =   4.4817901016327E+01
(PID.TID 0000.0001) %MON trcstat_ptracer02_min        =  -1.5080723758910E-01
(PID.TID 0000.0001) %MON trcstat_ptracer02_mean       =   3.0672984673445E+01
(PID.TID 0000.0001) %MON trcstat_ptracer02_sd         =   9.1048356139755E+00
(PID.TID 0000.0001) %MON trcstat_ptracer02_del2       =   7.0938887282883E-04
(PID.TID 0000.0001) %MON trcstat_ptracer03_max        =   8.5702605059037E+00
(PID.TID 0000.0001) %MON trcstat_ptracer03_min        =  -6.8673500975591E-09
(PID.TID 0000.0001) %MON trcstat_ptracer03_mean       =   2.0000167515973E-02
(PID.TID 0000.0001) %MON trcstat_ptracer03_sd         =   1.4836531870332E-01
(PID.TID 0000.0001) %MON trcstat_ptracer03_del2       =   2.0533914631663E-04
(PID.TID 0000.0001) %MON trcstat_ptracer04_max        =   1.3280832548036E+01
(PID.TID 0000.0001) %MON trcstat_ptracer04_min        =  -1.2611377307938E-07
(PID.TID 0000.0001) %MON trcstat_ptracer04_mean       =   7.3520052953908E-02
(PID.TID 0000.0001) %MON trcstat_ptracer04_sd         =   5.8114283725194E-01
(PID.TID 0000.0001) %MON trcstat_ptracer04_del2       =   3.0307655652944E-04
(PID.TID 0000.0001) %MON trcstat_ptracer05_max        =   3.5973361903148E+00
(PID.TID 0000.0001) %MON trcstat_ptracer05_min        =   8.4470209037068E-02
(PID.TID 0000.0001) %MON trcstat_ptracer05_mean       =   2.1791599454484E+00
(PID.TID 0000.0001) %MON trcstat_ptracer05_sd         =   6.1923184039182E-01
(PID.TID 0000.0001) %MON trcstat_ptracer05_del2       =   3.8005247966575E-05
(PID.TID 0000.0001) %MON trcstat_ptracer06_max        =   1.0654522902563E-03
(PID.TID 0000.0001) %MON trcstat_ptracer06_min        =  -7.7652057364971E-05
(PID.TID 0000.0001) %MON trcstat_ptracer06_mean       =   6.2656476459524E-04
(PID.TID 0000.0001) %MON trcstat_ptracer06_sd         =   1.9468535618568E-04
(PID.TID 0000.0001) %MON trcstat_ptracer06_del2       =   8.0432544614053E-08
(PID.TID 0000.0001) %MON trcstat_ptracer07_max        =   2.7520563365573E+02
(PID.TID 0000.0001) %MON trcstat_ptracer07_min        =   1.1357135063165E+00
(PID.TID 0000.0001) %MON trcstat_ptracer07_mean       =   9.0930634106323E+01
(PID.TID 0000.0001) %MON trcstat_ptracer07_sd         =   5.1624206677087E+01
(PID.TID 0000.0001) %MON trcstat_ptracer07_del2       =   1.3893616701308E-03
(PID.TID 0000.0001) %MON trcstat_ptracer08_max        =   2.7664168986112E+02
(PID.TID 0000.0001) %MON trcstat_ptracer08_min        =  -1.5874712256407E-07
(PID.TID 0000.0001) %MON trcstat_ptracer08_mean       =   1.5406423757891E-01
(PID.TID 0000.0001) %MON trcstat_ptracer08_sd         =   1.0179052853444E+00
(PID.TID 0000.0001) %MON trcstat_ptracer08_del2       =   1.1946875011059E-03
(PID.TID 0000.0001) %MON trcstat_ptracer09_max        =   3.9126035332780E+01
(PID.TID 0000.0001) %MON trcstat_ptracer09_min        =  -1.1873437369362E-07
(PID.TID 0000.0001) %MON trcstat_ptracer09_mean       =   1.8943555700130E-02
(PID.TID 0000.0001) %MON trcstat_ptracer09_sd         =   1.1652837096942E-01
(PID.TID 0000.0001) %MON trcstat_ptracer09_del2       =   9.6134368725553E-05
(PID.TID 0000.0001) %MON trcstat_ptracer10_max        =   2.3054105917344E+00
(PID.TID 0000.0001) %MON trcstat_ptracer10_min        =   9.7611596922267E-12
(PID.TID 0000.0001) %MON trcstat_ptracer10_mean       =   2.0658846806324E-04
(PID.TID 0000.0001) %MON trcstat_ptracer10_sd         =   3.5918850560167E-03
(PID.TID 0000.0001) %MON trcstat_ptracer10_del2       =   1.0297113544254E-06
(PID.TID 0000.0001) %MON trcstat_ptracer11_max        =   7.0678899028939E-03
(PID.TID 0000.0001) %MON trcstat_ptracer11_min        =  -7.5766661475375E-11
(PID.TID 0000.0001) %MON trcstat_ptracer11_mean       =   8.9877298233292E-06
(PID.TID 0000.0001) %MON trcstat_ptracer11_sd         =   4.4035433996286E-05
(PID.TID 0000.0001) %MON trcstat_ptracer11_del2       =   4.3600666544742E-08
(PID.TID 0000.0001) %MON trcstat_ptracer12_max        =   1.0477752257352E+03
(PID.TID 0000.0001) %MON trcstat_ptracer12_min        =  -1.2008863904883E-08
(PID.TID 0000.0001) %MON trcstat_ptracer12_mean       =   2.3785114015832E-02
(PID.TID 0000.0001) %MON trcstat_ptracer12_sd         =   1.6018428508856E+00
(PID.TID 0000.0001) %MON trcstat_ptracer12_del2       =   1.2301768878570E-04
(PID.TID 0000.0001) %MON trcstat_ptracer13_max        =   1.4830102968008E+02
(PID.TID 0000.0001) %MON trcstat_ptracer13_min        =  -6.1381980892665E-10
(PID.TID 0000.0001) %MON trcstat_ptracer13_mean       =   3.0622709269965E-03
(PID.TID 0000.0001) %MON trcstat_ptracer13_sd         =   2.2787291932638E-01
(PID.TID 0000.0001) %MON trcstat_ptracer13_del2       =   1.4756023896249E-05
(PID.TID 0000.0001) %MON trcstat_ptracer14_max        =   8.5846725489983E+00
(PID.TID 0000.0001) %MON trcstat_ptracer14_min        =  -1.3741185580653E-11
(PID.TID 0000.0001) %MON trcstat_ptracer14_mean       =   5.7187177679129E-05
(PID.TID 0000.0001) %MON trcstat_ptracer14_sd         =   1.2928905835573E-02
(PID.TID 0000.0001) %MON trcstat_ptracer14_del2       =   1.9353975983735E-07
(PID.TID 0000.0001) %MON trcstat_ptracer15_max        =   1.0527090663366E-02
(PID.TID 0000.0001) %MON trcstat_ptracer15_min        =  -1.0821961784535E-12
(PID.TID 0000.0001) %MON trcstat_ptracer15_mean       =   1.2263803453684E-06
(PID.TID 0000.0001) %MON trcstat_ptracer15_sd         =   1.8501710951776E-05
(PID.TID 0000.0001) %MON trcstat_ptracer15_del2       =   7.7348466350300E-09
(PID.TID 0000.0001) %MON trcstat_ptracer16_max        =   2.5130008022888E+01
(PID.TID 0000.0001) %MON trcstat_ptracer16_min        =  -3.2384196160029E-08
(PID.TID 0000.0001) %MON trcstat_ptracer16_mean       =   1.4886409531664E-02
(PID.TID 0000.0001) %MON trcstat_ptracer16_sd         =   1.1611923413557E-01
(PID.TID 0000.0001) %MON trcstat_ptracer16_del2       =   1.0095997685730E-05
(PID.TID 0000.0001) %MON trcstat_ptracer17_max        =   1.6448404614692E+01
(PID.TID 0000.0001) %MON trcstat_ptracer17_min        =  -1.2282850675296E-08
(PID.TID 0000.0001) %MON trcstat_ptracer17_mean       =   6.2377312438306E-03
(PID.TID 0000.0001) %MON trcstat_ptracer17_sd         =   5.6824652998441E-02
(PID.TID 0000.0001) %MON trcstat_ptracer17_del2       =   1.3393014939201E-05
(PID.TID 0000.0001) %MON trcstat_ptracer18_max        =   2.5680002225232E+03
(PID.TID 0000.0001) %MON trcstat_ptracer18_min        =   2.0142451962165E+03
(PID.TID 0000.0001) %MON trcstat_ptracer18_mean       =   2.3641769332763E+03
(PID.TID 0000.0001) %MON trcstat_ptracer18_sd         =   4.2025111745504E+01
(PID.TID 0000.0001) %MON trcstat_ptracer18_del2       =   4.8966615276070E-03
(PID.TID 0000.0001) %MON trcstat_ptracer19_max        =   3.8526556608945E+02
(PID.TID 0000.0001) %MON trcstat_ptracer19_min        =   2.9151998959636E-05
(PID.TID 0000.0001) %MON trcstat_ptracer19_mean       =   2.0398870306832E+01
(PID.TID 0000.0001) %MON trcstat_ptracer19_sd         =   5.4787355243414E+01
(PID.TID 0000.0001) %MON trcstat_ptracer19_del2       =   1.3323108566371E-02
(PID.TID 0000.0001) %MON trcstat_ptracer20_max        =   9.8841177904323E-02
(PID.TID 0000.0001) %MON trcstat_ptracer20_min        =  -2.5584139071377E-11
(PID.TID 0000.0001) %MON trcstat_ptracer20_mean       =   4.2681125805473E-05
(PID.TID 0000.0001) %MON trcstat_ptracer20_sd         =   1.6129211415986E-04
(PID.TID 0000.0001) %MON trcstat_ptracer20_del2       =   2.0774618094939E-08
(PID.TID 0000.0001) %MON trcstat_ptracer21_max        =   6.5207582599078E+01
(PID.TID 0000.0001) %MON trcstat_ptracer21_min        =  -3.9184923679011E-06
(PID.TID 0000.0001) %MON trcstat_ptracer21_mean       =   1.1838348898580E-01
(PID.TID 0000.0001) %MON trcstat_ptracer21_sd         =   9.7185747139745E-01
(PID.TID 0000.0001) %MON trcstat_ptracer21_del2       =   1.2755046335004E-03
(PID.TID 0000.0001) %MON trcstat_ptracer22_max        =   2.1999228807457E+01
(PID.TID 0000.0001) %MON trcstat_ptracer22_min        =  -9.5462535862683E-08
(PID.TID 0000.0001) %MON trcstat_ptracer22_mean       =   2.3749104901013E-02
(PID.TID 0000.0001) %MON trcstat_ptracer22_sd         =   2.3885298129103E-01
(PID.TID 0000.0001) %MON trcstat_ptracer22_del2       =   4.5301496525139E-04
(PID.TID 0000.0001) %MON trcstat_ptracer23_max        =   4.0243969228669E-11
(PID.TID 0000.0001) %MON trcstat_ptracer23_min        =  -9.7320340157086E-20
(PID.TID 0000.0001) %MON trcstat_ptracer23_mean       =   1.4724139432412E-13
(PID.TID 0000.0001) %MON trcstat_ptracer23_sd         =   5.4386978385220E-13
(PID.TID 0000.0001) %MON trcstat_ptracer23_del2       =   1.7966203133131E-16
(PID.TID 0000.0001) %MON trcstat_ptracer24_max        =   4.0243969228669E-11
(PID.TID 0000.0001) %MON trcstat_ptracer24_min        =  -9.7320340157086E-20
(PID.TID 0000.0001) %MON trcstat_ptracer24_mean       =   1.4724139432412E-13
(PID.TID 0000.0001) %MON trcstat_ptracer24_sd         =   5.4386978385220E-13
(PID.TID 0000.0001) %MON trcstat_ptracer24_del2       =   1.7966203133131E-16
(PID.TID 0000.0001) %MON trcstat_ptracer25_max        =   7.1361004085327E+00
(PID.TID 0000.0001) %MON trcstat_ptracer25_min        =  -8.4690241341426E-07
(PID.TID 0000.0001) %MON trcstat_ptracer25_mean       =   1.4401133579783E-02
(PID.TID 0000.0001) %MON trcstat_ptracer25_sd         =   1.0471504500891E-01
(PID.TID 0000.0001) %MON trcstat_ptracer25_del2       =   1.4182635932244E-04
(PID.TID 0000.0001) %MON trcstat_ptracer26_max        =   3.7410092355396E+00
(PID.TID 0000.0001) %MON trcstat_ptracer26_min        =  -4.6391266669338E-09
(PID.TID 0000.0001) %MON trcstat_ptracer26_mean       =   3.4133206864525E-03
(PID.TID 0000.0001) %MON trcstat_ptracer26_sd         =   3.3783776124332E-02
(PID.TID 0000.0001) %MON trcstat_ptracer26_del2       =   6.6427377175111E-05
(PID.TID 0000.0001) %MON trcstat_ptracer27_max        =   6.0745612586113E-12
(PID.TID 0000.0001) %MON trcstat_ptracer27_min        =  -1.4689862714887E-20
(PID.TID 0000.0001) %MON trcstat_ptracer27_mean       =   2.2225116124891E-14
(PID.TID 0000.0001) %MON trcstat_ptracer27_sd         =   8.2093552274164E-14
(PID.TID 0000.0001) %MON trcstat_ptracer27_del2       =   2.7118797181282E-17
(PID.TID 0000.0001) %MON trcstat_ptracer28_max        =   6.0745612586113E-12
(PID.TID 0000.0001) %MON trcstat_ptracer28_min        =  -1.4689862714887E-20
(PID.TID 0000.0001) %MON trcstat_ptracer28_mean       =   2.2225116124891E-14
(PID.TID 0000.0001) %MON trcstat_ptracer28_sd         =   8.2093552274164E-14
(PID.TID 0000.0001) %MON trcstat_ptracer28_del2       =   2.7118797181282E-17
(PID.TID 0000.0001) %MON trcstat_ptracer29_max        =   8.4785448887193E-02
(PID.TID 0000.0001) %MON trcstat_ptracer29_min        =  -9.1689470009000E-09
(PID.TID 0000.0001) %MON trcstat_ptracer29_mean       =   1.5878612946067E-04
(PID.TID 0000.0001) %MON trcstat_ptracer29_sd         =   1.1899530626644E-03
(PID.TID 0000.0001) %MON trcstat_ptracer29_del2       =   1.6060305115634E-06
(PID.TID 0000.0001) %MON trcstat_ptracer30_max        =   5.2573085646389E-02
(PID.TID 0000.0001) %MON trcstat_ptracer30_min        =  -8.8748938875439E-11
(PID.TID 0000.0001) %MON trcstat_ptracer30_mean       =   3.4483299091597E-05
(PID.TID 0000.0001) %MON trcstat_ptracer30_sd         =   3.5648678136883E-04
(PID.TID 0000.0001) %MON trcstat_ptracer30_del2       =   9.0874375892414E-07
(PID.TID 0000.0001) %MON trcstat_ptracer31_max        =   2.3728754916450E-14
(PID.TID 0000.0001) %MON trcstat_ptracer31_min        =  -5.7382276230027E-23
(PID.TID 0000.0001) %MON trcstat_ptracer31_mean       =   8.6816859862856E-17
(PID.TID 0000.0001) %MON trcstat_ptracer31_sd         =   3.2067793857095E-16
(PID.TID 0000.0001) %MON trcstat_ptracer31_del2       =   1.0593280148938E-19
(PID.TID 0000.0001) %MON trcstat_ptracer32_max        =   2.3728754916450E-14
(PID.TID 0000.0001) %MON trcstat_ptracer32_min        =  -5.7382276230027E-23
(PID.TID 0000.0001) %MON trcstat_ptracer32_mean       =   8.6816859862856E-17
(PID.TID 0000.0001) %MON trcstat_ptracer32_sd         =   3.2067793857095E-16
(PID.TID 0000.0001) %MON trcstat_ptracer32_del2       =   1.0593280148938E-19
(PID.TID 0000.0001) %MON trcstat_ptracer33_max        =   2.9279965221233E-03
(PID.TID 0000.0001) %MON trcstat_ptracer33_min        =  -1.1478765098950E-09
(PID.TID 0000.0001) %MON trcstat_ptracer33_mean       =   7.1022887844533E-06
(PID.TID 0000.0001) %MON trcstat_ptracer33_sd         =   4.3037235038200E-05
(PID.TID 0000.0001) %MON trcstat_ptracer33_del2       =   4.8522178151990E-08
(PID.TID 0000.0001) %MON trcstat_ptracer34_max        =   1.0541596553169E-03
(PID.TID 0000.0001) %MON trcstat_ptracer34_min        =  -6.1648520391178E-12
(PID.TID 0000.0001) %MON trcstat_ptracer34_mean       =   1.5301324318909E-06
(PID.TID 0000.0001) %MON trcstat_ptracer34_sd         =   1.0945413248712E-05
(PID.TID 0000.0001) %MON trcstat_ptracer34_del2       =   1.7542757634416E-08
(PID.TID 0000.0001) %MON trcstat_ptracer35_max        =   4.0243969813913E-14
(PID.TID 0000.0001) %MON trcstat_ptracer35_min        =  -9.7320340250832E-23
(PID.TID 0000.0001) %MON trcstat_ptracer35_mean       =   1.4724139432128E-16
(PID.TID 0000.0001) %MON trcstat_ptracer35_sd         =   5.4386978382056E-16
(PID.TID 0000.0001) %MON trcstat_ptracer35_del2       =   1.7966203128430E-19
(PID.TID 0000.0001) %MON trcstat_ptracer36_max        =   4.0243969813913E-14
(PID.TID 0000.0001) %MON trcstat_ptracer36_min        =  -9.7320340250832E-23
(PID.TID 0000.0001) %MON trcstat_ptracer36_mean       =   1.4724139432128E-16
(PID.TID 0000.0001) %MON trcstat_ptracer36_sd         =   5.4386978382056E-16
(PID.TID 0000.0001) %MON trcstat_ptracer36_del2       =   1.7966203128430E-19
(PID.TID 0000.0001) // =======================================================
(PID.TID 0000.0001) // End MONITOR ptracer field statistics
(PID.TID 0000.0001) // =======================================================
 Computing Diagnostic #    267  TRAC01       Counter:       1   Parms: SMR     MR      
 Computing Diagnostic #    282  TRAC02       Counter:       1   Parms: SMR     MR      
 Computing Diagnostic #    297  TRAC03       Counter:       1   Parms: SMR     MR      
 Computing Diagnostic #    312  TRAC04       Counter:       1   Parms: SMR     MR      
 Computing Diagnostic #    327  TRAC05       Counter:       1   Parms: SMR     MR      
 Computing Diagnostic #    342  TRAC06       Counter:       1   Parms: SMR     MR      
 Computing Diagnostic #    357  TRAC07       Counter:       1   Parms: SMR     MR      
 Computing Diagnostic #    372  TRAC08       Counter:       1   Parms: SMR     MR      
 Computing Diagnostic #    387  TRAC09       Counter:       1   Parms: SMR     MR      
 Computing Diagnostic #    402  TRAC10       Counter:       1   Parms: SMR     MR      
 Computing Diagnostic #    417  TRAC11       Counter:       1   Parms: SMR     MR      
 Computing Diagnostic #    432  TRAC12       Counter:       1   Parms: SMR     MR      
 Computing Diagnostic #    447  TRAC13       Counter:       1   Parms: SMR     MR      
 Computing Diagnostic #    462  TRAC14       Counter:       1   Parms: SMR     MR      
 Computing Diagnostic #    477  TRAC15       Counter:       1   Parms: SMR     MR      
 Computing Diagnostic #    492  TRAC16       Counter:       1   Parms: SMR     MR      
 Computing Diagnostic #    507  TRAC17       Counter:       1   Parms: SMR     MR      
 Computing Diagnostic #    522  TRAC18       Counter:       1   Parms: SMR     MR      
 Computing Diagnostic #    537  TRAC19       Counter:       1   Parms: SMR     MR      
 Computing Diagnostic #    552  TRAC20       Counter:       1   Parms: SMR     MR      
 Computing Diagnostic #    567  TRAC21       Counter:       1   Parms: SMR     MR      
 Computing Diagnostic #    582  TRAC22       Counter:       1   Parms: SMR     MR      
 Computing Diagnostic #    597  TRAC23       Counter:       1   Parms: SMR     MR      
 Computing Diagnostic #    612  TRAC24       Counter:       1   Parms: SMR     MR      
 Computing Diagnostic #    627  TRAC25       Counter:       1   Parms: SMR     MR      
 Computing Diagnostic #    642  TRAC26       Counter:       1   Parms: SMR     MR      
 Computing Diagnostic #    657  TRAC27       Counter:       1   Parms: SMR     MR      
 Computing Diagnostic #    672  TRAC28       Counter:       1   Parms: SMR     MR      
 Computing Diagnostic #    687  TRAC29       Counter:       1   Parms: SMR     MR      
 Computing Diagnostic #    702  TRAC30       Counter:       1   Parms: SMR     MR      
 Computing Diagnostic #    717  TRAC31       Counter:       1   Parms: SMR     MR      
 Computing Diagnostic #    732  TRAC32       Counter:       1   Parms: SMR     MR      
 Computing Diagnostic #    747  TRAC33       Counter:       1   Parms: SMR     MR      
 Computing Diagnostic #    762  TRAC34       Counter:       1   Parms: SMR     MR      
 Computing Diagnostic #    777  TRAC35       Counter:       1   Parms: SMR     MR      
 Computing Diagnostic #    792  TRAC36       Counter:       1   Parms: SMR     MR      
 Computing Diagnostic #   1020  PAR          Counter:       1   Parms: SMRP    MR      
 Computing Diagnostic #    810  PP           Counter:       1   Parms: SMRP    MR      
 Computing Diagnostic #    811  Nfix         Counter:       1   Parms: SMRP    MR      
 Computing Diagnostic #    812  Denit        Counter:       1   Parms: SMRP    MR      
 Computing Diagnostic #   1143  pH           Counter:       1   Parms: SMR     MR      
 Computing Diagnostic #   1144  pCO2         Counter:       1   Parms: SMRP    MR      
 Computing Diagnostic #   1108  PC0001       Counter:       1   Parms: SMRP    MR      
 Computing Diagnostic #    814  PChl0001     Counter:       1   Parms: SM P    MR      
 Computing Diagnostic #    815  VN0001       Counter:       1   Parms: SM P    MR      
 Computing Diagnostic #    816  MODE0001     Counter:       1   Parms: SM P    MR      
 Computing Diagnostic #    817  Fe_C0001     Counter:       1   Parms: SM P    MR      
 Computing Diagnostic #    818  exQc0001     Counter:       1   Parms: SM P    MR      
 Computing Diagnostic #    819  PCg0001      Counter:       1   Parms: SM P    MR      
 Computing Diagnostic #    820  CChl0001     Counter:       1   Parms: SM P    MR      
 Computing Diagnostic #    821  NChl0001     Counter:       1   Parms: SM P    MR      
 Computing Diagnostic #    822  NPho0001     Counter:       1   Parms: SM P    MR      
 Computing Diagnostic #    823  NSyn0001     Counter:       1   Parms: SM P    MR      
 Computing Diagnostic #    824  NPrn0001     Counter:       1   Parms: SM P    MR      
 Computing Diagnostic #    825  NRNA0001     Counter:       1   Parms: SM P    MR      
 Computing Diagnostic #    826  NDNA0001     Counter:       1   Parms: SM P    MR      
 Computing Diagnostic #    827  NSTO0001     Counter:       1   Parms: SM P    MR      
 Computing Diagnostic #    828  NEXC0001     Counter:       1   Parms: SM P    MR      
 Computing Diagnostic #    829  PRNA0001     Counter:       1   Parms: SM P    MR      
 Computing Diagnostic #    830  PDNA0001     Counter:       1   Parms: SM P    MR      
 Computing Diagnostic #    831  PTHY0001     Counter:       1   Parms: SM P    MR      
 Computing Diagnostic #    832  PCON0001     Counter:       1   Parms: SM P    MR      
 Computing Diagnostic #    833  PSTO0001     Counter:       1   Parms: SM P    MR      
 Computing Diagnostic #    834  PEXC0001     Counter:       1   Parms: SM P    MR      
 Computing Diagnostic #    835  FPHO0001     Counter:       1   Parms: SM P    MR      
 Computing Diagnostic #    836  FSTO0001     Counter:       1   Parms: SM P    MR      
 Computing Diagnostic #    837  FEXC0001     Counter:       1   Parms: SM P    MR      
 Computing Diagnostic #    844  CChl0002     Counter:       1   Parms: SM P    MR      
 Computing Diagnostic #    845  NChl0002     Counter:       1   Parms: SM P    MR      
 Computing Diagnostic #    846  NPho0002     Counter:       1   Parms: SM P    MR      
 Computing Diagnostic #    847  NSyn0002     Counter:       1   Parms: SM P    MR      
 Computing Diagnostic #    848  NPrn0002     Counter:       1   Parms: SM P    MR      
 Computing Diagnostic #    849  NRNA0002     Counter:       1   Parms: SM P    MR      
 Computing Diagnostic #    850  NDNA0002     Counter:       1   Parms: SM P    MR      
 Computing Diagnostic #    851  NSTO0002     Counter:       1   Parms: SM P    MR      
 Computing Diagnostic #    852  NEXC0002     Counter:       1   Parms: SM P    MR      
 Computing Diagnostic #    853  PRNA0002     Counter:       1   Parms: SM P    MR      
 Computing Diagnostic #    854  PDNA0002     Counter:       1   Parms: SM P    MR      
 Computing Diagnostic #    855  PTHY0002     Counter:       1   Parms: SM P    MR      
 Computing Diagnostic #    856  PCON0002     Counter:       1   Parms: SM P    MR      
 Computing Diagnostic #    857  PSTO0002     Counter:       1   Parms: SM P    MR      
 Computing Diagnostic #    858  PEXC0002     Counter:       1   Parms: SM P    MR      
 Computing Diagnostic #    859  FPHO0002     Counter:       1   Parms: SM P    MR      
 Computing Diagnostic #    860  FSTO0002     Counter:       1   Parms: SM P    MR      
 Computing Diagnostic #    861  FEXC0002     Counter:       1   Parms: SM P    MR      
 Computing Diagnostic #   1115  PC0002       Counter:       1   Parms: SMRP    MR      
 Computing Diagnostic #    838  PChl0002     Counter:       1   Parms: SM P    MR      
 Computing Diagnostic #    839  VN0002       Counter:       1   Parms: SM P    MR      
 Computing Diagnostic #    840  MODE0002     Counter:       1   Parms: SM P    MR      
 Computing Diagnostic #    841  Fe_C0002     Counter:       1   Parms: SM P    MR      
 Computing Diagnostic #    842  exQc0002     Counter:       1   Parms: SM P    MR      
 Computing Diagnostic #    843  PCg0002      Counter:       1   Parms: SM P    MR      
 Computing Diagnostic #   1172  GC_Tr01      Counter:       1   Parms: SMR     MR      
 Computing Diagnostic #   1173  GC_Tr02      Counter:       1   Parms: SMR     MR      
 Computing Diagnostic #   1174  GC_Tr03      Counter:       1   Parms: SMR     MR      
 Computing Diagnostic #   1175  GC_Tr04      Counter:       1   Parms: SMR     MR      
 Computing Diagnostic #   1176  GC_Tr05      Counter:       1   Parms: SMR     MR      
 Computing Diagnostic #   1177  GC_Tr06      Counter:       1   Parms: SMR     MR      
 Computing Diagnostic #   1178  GC_Tr07      Counter:       1   Parms: SMR     MR      
 Computing Diagnostic #   1179  GC_Tr08      Counter:       1   Parms: SMR     MR      
 Computing Diagnostic #   1180  GC_Tr09      Counter:       1   Parms: SMR     MR      
 Computing Diagnostic #   1181  GC_Tr10      Counter:       1   Parms: SMR     MR      
 Computing Diagnostic #   1182  GC_Tr11      Counter:       1   Parms: SMR     MR      
 Computing Diagnostic #   1183  GC_Tr12      Counter:       1   Parms: SMR     MR      
 Computing Diagnostic #   1184  GC_Tr13      Counter:       1   Parms: SMR     MR      
 Computing Diagnostic #   1185  GC_Tr14      Counter:       1   Parms: SMR     MR      
 Computing Diagnostic #   1186  GC_Tr15      Counter:       1   Parms: SMR     MR      
 Computing Diagnostic #   1187  GC_Tr16      Counter:       1   Parms: SMR     MR      
 Computing Diagnostic #   1188  GC_Tr17      Counter:       1   Parms: SMR     MR      
 Computing Diagnostic #   1189  GC_Tr18      Counter:       1   Parms: SMR     MR      
 Computing Diagnostic #   1190  GC_Tr19      Counter:       1   Parms: SMR     MR      
 Computing Diagnostic #   1191  GC_Tr20      Counter:       1   Parms: SMR     MR      
 Computing Diagnostic #   1192  GC_Tr21      Counter:       1   Parms: SMR     MR      
 Computing Diagnostic #   1193  GC_Tr22      Counter:       1   Parms: SMR     MR      
 Computing Diagnostic #   1194  GC_Tr23      Counter:       1   Parms: SMR     MR      
 Computing Diagnostic #   1195  GC_Tr24      Counter:       1   Parms: SMR     MR      
 Computing Diagnostic #   1196  GC_Tr25      Counter:       1   Parms: SMR     MR      
 Computing Diagnostic #   1197  GC_Tr26      Counter:       1   Parms: SMR     MR      
 Computing Diagnostic #   1198  GC_Tr27      Counter:       1   Parms: SMR     MR      
 Computing Diagnostic #   1199  GC_Tr28      Counter:       1   Parms: SMR     MR      
 Computing Diagnostic #   1200  GC_Tr29      Counter:       1   Parms: SMR     MR      
 Computing Diagnostic #   1201  GC_Tr30      Counter:       1   Parms: SMR     MR      
 Computing Diagnostic #   1202  GC_Tr31      Counter:       1   Parms: SMR     MR      
 Computing Diagnostic #   1203  GC_Tr32      Counter:       1   Parms: SMR     MR      
 Computing Diagnostic #   1204  GC_Tr33      Counter:       1   Parms: SMR     MR      
 Computing Diagnostic #   1205  GC_Tr34      Counter:       1   Parms: SMR     MR      
 Computing Diagnostic #   1206  GC_Tr35      Counter:       1   Parms: SMR     MR      
 Computing Diagnostic #   1207  GC_Tr36      Counter:       1   Parms: SMR     MR      
 Compute Stats, Diag. #    810  PP        vol(   0 ): 3.978E+18  Parms: SMRP    MR      
 Compute Stats, Diag. #    811  Nfix      vol(   0 ): 3.978E+18  Parms: SMRP    MR      
 Compute Stats, Diag. #    812  Denit     vol(   0 ): 3.978E+18  Parms: SMRP    MR      
(PID.TID 0000.0001) // =======================================================
(PID.TID 0000.0001) // Begin MONITOR EXF statistics
(PID.TID 0000.0001) // =======================================================
(PID.TID 0000.0001) %MON exf_tsnumber                 =                     3
(PID.TID 0000.0001) %MON exf_time_sec                 =   1.0800000000000E+04
(PID.TID 0000.0001) %MON exf_ustress_max              =   0.0000000000000E+00
(PID.TID 0000.0001) %MON exf_ustress_min              =   0.0000000000000E+00
(PID.TID 0000.0001) %MON exf_ustress_mean             =   0.0000000000000E+00
(PID.TID 0000.0001) %MON exf_ustress_sd               =   0.0000000000000E+00
(PID.TID 0000.0001) %MON exf_ustress_del2             =   0.0000000000000E+00
(PID.TID 0000.0001) %MON exf_vstress_max              =   0.0000000000000E+00
(PID.TID 0000.0001) %MON exf_vstress_min              =   0.0000000000000E+00
(PID.TID 0000.0001) %MON exf_vstress_mean             =   0.0000000000000E+00
(PID.TID 0000.0001) %MON exf_vstress_sd               =   0.0000000000000E+00
(PID.TID 0000.0001) %MON exf_vstress_del2             =   0.0000000000000E+00
(PID.TID 0000.0001) %MON exf_hflux_max                =   0.0000000000000E+00
(PID.TID 0000.0001) %MON exf_hflux_min                =   0.0000000000000E+00
(PID.TID 0000.0001) %MON exf_hflux_mean               =   0.0000000000000E+00
(PID.TID 0000.0001) %MON exf_hflux_sd                 =   0.0000000000000E+00
(PID.TID 0000.0001) %MON exf_hflux_del2               =   0.0000000000000E+00
(PID.TID 0000.0001) %MON exf_sflux_max                =   0.0000000000000E+00
(PID.TID 0000.0001) %MON exf_sflux_min                =   0.0000000000000E+00
(PID.TID 0000.0001) %MON exf_sflux_mean               =   0.0000000000000E+00
(PID.TID 0000.0001) %MON exf_sflux_sd                 =   0.0000000000000E+00
(PID.TID 0000.0001) %MON exf_sflux_del2               =   0.0000000000000E+00
(PID.TID 0000.0001) %MON exf_uwind_max                =   0.0000000000000E+00
(PID.TID 0000.0001) %MON exf_uwind_min                =   0.0000000000000E+00
(PID.TID 0000.0001) %MON exf_uwind_mean               =   0.0000000000000E+00
(PID.TID 0000.0001) %MON exf_uwind_sd                 =   0.0000000000000E+00
(PID.TID 0000.0001) %MON exf_uwind_del2               =   0.0000000000000E+00
(PID.TID 0000.0001) %MON exf_vwind_max                =   0.0000000000000E+00
(PID.TID 0000.0001) %MON exf_vwind_min                =   0.0000000000000E+00
(PID.TID 0000.0001) %MON exf_vwind_mean               =   0.0000000000000E+00
(PID.TID 0000.0001) %MON exf_vwind_sd                 =   0.0000000000000E+00
(PID.TID 0000.0001) %MON exf_vwind_del2               =   0.0000000000000E+00
(PID.TID 0000.0001) %MON exf_wspeed_max               =   0.0000000000000E+00
(PID.TID 0000.0001) %MON exf_wspeed_min               =   0.0000000000000E+00
(PID.TID 0000.0001) %MON exf_wspeed_mean              =   0.0000000000000E+00
(PID.TID 0000.0001) %MON exf_wspeed_sd                =   0.0000000000000E+00
(PID.TID 0000.0001) %MON exf_wspeed_del2              =   0.0000000000000E+00
(PID.TID 0000.0001) %MON exf_evap_max                 =   0.0000000000000E+00
(PID.TID 0000.0001) %MON exf_evap_min                 =   0.0000000000000E+00
(PID.TID 0000.0001) %MON exf_evap_mean                =   0.0000000000000E+00
(PID.TID 0000.0001) %MON exf_evap_sd                  =   0.0000000000000E+00
(PID.TID 0000.0001) %MON exf_evap_del2                =   0.0000000000000E+00
(PID.TID 0000.0001) // =======================================================
(PID.TID 0000.0001) // End MONITOR EXF statistics
(PID.TID 0000.0001) // =======================================================
(PID.TID 0000.0001) // =======================================================
(PID.TID 0000.0001) // Begin MONITOR RADTRANS statistics
(PID.TID 0000.0001) // =======================================================
(PID.TID 0000.0001) %MON RT_tsnumber                  =                     3
(PID.TID 0000.0001) %MON RT_time_sec                  =   1.0800000000000E+04
(PID.TID 0000.0001) %MON RT_Ed001_max                 =   2.7632812480132E+00
(PID.TID 0000.0001) %MON RT_Ed001_min                 =   2.5805192106148E-37
(PID.TID 0000.0001) %MON RT_Ed001_mean                =   9.5100830804588E-01
(PID.TID 0000.0001) %MON RT_Ed001_sd                  =   6.8310005235928E-01
(PID.TID 0000.0001) %MON RT_Ed001_del2                =   2.4695114793340E-04
(PID.TID 0000.0001) %MON RT_Ed002_max                 =   7.1649040063222E+00
(PID.TID 0000.0001) %MON RT_Ed002_min                 =   5.1610384212295E-37
(PID.TID 0000.0001) %MON RT_Ed002_mean                =   2.4690986402391E+00
(PID.TID 0000.0001) %MON RT_Ed002_sd                  =   1.7474742055218E+00
(PID.TID 0000.0001) %MON RT_Ed002_del2                =   6.2693877270136E-04
(PID.TID 0000.0001) %MON RT_Ed003_max                 =   8.7406473239263E+00
(PID.TID 0000.0001) %MON RT_Ed003_min                 =   5.1610384212295E-37
(PID.TID 0000.0001) %MON RT_Ed003_mean                =   2.9981955732321E+00
(PID.TID 0000.0001) %MON RT_Ed003_sd                  =   2.1079519793741E+00
(PID.TID 0000.0001) %MON RT_Ed003_del2                =   7.6403073574329E-04
(PID.TID 0000.0001) %MON RT_Ed004_max                 =   9.2532021403313E+00
(PID.TID 0000.0001) %MON RT_Ed004_min                 =   5.1610384212295E-37
(PID.TID 0000.0001) %MON RT_Ed004_mean                =   3.1843624049948E+00
(PID.TID 0000.0001) %MON RT_Ed004_sd                  =   2.2166129859570E+00
(PID.TID 0000.0001) %MON RT_Ed004_del2                =   8.0122254557998E-04
(PID.TID 0000.0001) %MON RT_Ed005_max                 =   9.3276818315188E+00
(PID.TID 0000.0001) %MON RT_Ed005_min                 =   5.1610390882476E-37
(PID.TID 0000.0001) %MON RT_Ed005_mean                =   3.2178513642440E+00
(PID.TID 0000.0001) %MON RT_Ed005_sd                  =   2.2198140191812E+00
(PID.TID 0000.0001) %MON RT_Ed005_del2                =   7.9671244898730E-04
(PID.TID 0000.0001) %MON RT_Ed006_max                 =   9.1590950210889E+00
(PID.TID 0000.0001) %MON RT_Ed006_min                 =   5.1610393105870E-37
(PID.TID 0000.0001) %MON RT_Ed006_mean                =   3.1761122629553E+00
(PID.TID 0000.0001) %MON RT_Ed006_sd                  =   2.1773454842320E+00
(PID.TID 0000.0001) %MON RT_Ed006_del2                =   7.8052574025637E-04
(PID.TID 0000.0001) %MON RT_Ed007_max                 =   9.2882659276327E+00
(PID.TID 0000.0001) %MON RT_Ed007_min                 =   5.1610395329263E-37
(PID.TID 0000.0001) %MON RT_Ed007_mean                =   3.2280743170803E+00
(PID.TID 0000.0001) %MON RT_Ed007_sd                  =   2.2034818820917E+00
(PID.TID 0000.0001) %MON RT_Ed007_del2                =   7.8802607917423E-04
(PID.TID 0000.0001) %MON RT_Ed008_max                 =   9.1941847960154E+00
(PID.TID 0000.0001) %MON RT_Ed008_min                 =   5.1610404222837E-37
(PID.TID 0000.0001) %MON RT_Ed008_mean                =   3.1816007250118E+00
(PID.TID 0000.0001) %MON RT_Ed008_sd                  =   2.1657422597731E+00
(PID.TID 0000.0001) %MON RT_Ed008_del2                =   7.7272201230506E-04
(PID.TID 0000.0001) %MON RT_Ed009_max                 =   8.7368162711461E+00
(PID.TID 0000.0001) %MON RT_Ed009_min                 =   5.1610450914102E-37
(PID.TID 0000.0001) %MON RT_Ed009_mean                =   3.0235196550838E+00
(PID.TID 0000.0001) %MON RT_Ed009_sd                  =   2.0486524952763E+00
(PID.TID 0000.0001) %MON RT_Ed009_del2                =   7.3165472467645E-04
(PID.TID 0000.0001) %MON RT_Ed010_max                 =   8.6697052598000E+00
(PID.TID 0000.0001) %MON RT_Ed010_min                 =   5.1610488711793E-37
(PID.TID 0000.0001) %MON RT_Ed010_mean                =   3.0172122460394E+00
(PID.TID 0000.0001) %MON RT_Ed010_sd                  =   2.0394480232463E+00
(PID.TID 0000.0001) %MON RT_Ed010_del2                =   7.2735806880824E-04
(PID.TID 0000.0001) %MON RT_Ed011_max                 =   8.2007292648156E+00
(PID.TID 0000.0001) %MON RT_Ed011_min                 =   5.1610524286090E-37
(PID.TID 0000.0001) %MON RT_Ed011_mean                =   2.8460230048013E+00
(PID.TID 0000.0001) %MON RT_Ed011_sd                  =   1.9154454239217E+00
(PID.TID 0000.0001) %MON RT_Ed011_del2                =   6.8987730526758E-04
(PID.TID 0000.0001) %MON RT_Ed012_max                 =   7.4815078655879E+00
(PID.TID 0000.0001) %MON RT_Ed012_min                 =   5.1610546520025E-37
(PID.TID 0000.0001) %MON RT_Ed012_mean                =   2.5981408779391E+00
(PID.TID 0000.0001) %MON RT_Ed012_sd                  =   1.7524072666589E+00
(PID.TID 0000.0001) %MON RT_Ed012_del2                =   6.2644388441438E-04
(PID.TID 0000.0001) %MON RT_Ed013_max                 =   3.6964058190584E+00
(PID.TID 0000.0001) %MON RT_Ed013_min                 =   5.1610617668620E-37
(PID.TID 0000.0001) %MON RT_Ed013_mean                =   1.2782350832914E+00
(PID.TID 0000.0001) %MON RT_Ed013_sd                  =   8.5802507784813E-01
(PID.TID 0000.0001) %MON RT_Ed013_del2                =   3.0891130979424E-04
(PID.TID 0000.0001) %MON RT_Es001_max                 =   2.9257254660130E+00
(PID.TID 0000.0001) %MON RT_Es001_min                 =   4.6921565580790E-37
(PID.TID 0000.0001) %MON RT_Es001_mean                =   1.9221707892450E+00
(PID.TID 0000.0001) %MON RT_Es001_sd                  =   7.2406224732179E-01
(PID.TID 0000.0001) %MON RT_Es001_del2                =   1.7543363163120E-04
(PID.TID 0000.0001) %MON RT_Es002_max                 =   6.9801600873470E+00
(PID.TID 0000.0001) %MON RT_Es002_min                 =   9.3843131161579E-37
(PID.TID 0000.0001) %MON RT_Es002_mean                =   4.5356823617744E+00
(PID.TID 0000.0001) %MON RT_Es002_sd                  =   1.7197127432564E+00
(PID.TID 0000.0001) %MON RT_Es002_del2                =   4.3318709022164E-04
(PID.TID 0000.0001) %MON RT_Es003_max                 =   8.0266555090745E+00
(PID.TID 0000.0001) %MON RT_Es003_min                 =   9.3843131161579E-37
(PID.TID 0000.0001) %MON RT_Es003_mean                =   5.1679680484005E+00
(PID.TID 0000.0001) %MON RT_Es003_sd                  =   1.9757093496040E+00
(PID.TID 0000.0001) %MON RT_Es003_del2                =   5.2089157298418E-04
(PID.TID 0000.0001) %MON RT_Es004_max                 =   8.0642440398534E+00
(PID.TID 0000.0001) %MON RT_Es004_min                 =   9.3843135608366E-37
(PID.TID 0000.0001) %MON RT_Es004_mean                =   5.1505588882734E+00
(PID.TID 0000.0001) %MON RT_Es004_sd                  =   1.9822359699810E+00
(PID.TID 0000.0001) %MON RT_Es004_del2                =   5.3882381007138E-04
(PID.TID 0000.0001) %MON RT_Es005_max                 =   7.7760907491048E+00
(PID.TID 0000.0001) %MON RT_Es005_min                 =   9.3843140055153E-37
(PID.TID 0000.0001) %MON RT_Es005_mean                =   4.9329593902373E+00
(PID.TID 0000.0001) %MON RT_Es005_sd                  =   1.9116237746829E+00
(PID.TID 0000.0001) %MON RT_Es005_del2                =   5.3113259348266E-04
(PID.TID 0000.0001) %MON RT_Es006_max                 =   7.3728981475035E+00
(PID.TID 0000.0001) %MON RT_Es006_min                 =   9.3843153395515E-37
(PID.TID 0000.0001) %MON RT_Es006_mean                =   4.6470875359123E+00
(PID.TID 0000.0001) %MON RT_Es006_sd                  =   1.8162250292622E+00
(PID.TID 0000.0001) %MON RT_Es006_del2                =   5.1537184694516E-04
(PID.TID 0000.0001) %MON RT_Es007_max                 =   7.2588667531808E+00
(PID.TID 0000.0001) %MON RT_Es007_min                 =   9.3843162289089E-37
(PID.TID 0000.0001) %MON RT_Es007_mean                =   4.5511313900374E+00
(PID.TID 0000.0001) %MON RT_Es007_sd                  =   1.7936197723686E+00
(PID.TID 0000.0001) %MON RT_Es007_del2                =   5.1691118607116E-04
(PID.TID 0000.0001) %MON RT_Es008_max                 =   7.0179101785024E+00
(PID.TID 0000.0001) %MON RT_Es008_min                 =   9.3843180076238E-37
(PID.TID 0000.0001) %MON RT_Es008_mean                =   4.3710227667379E+00
(PID.TID 0000.0001) %MON RT_Es008_sd                  =   1.7375236492645E+00
(PID.TID 0000.0001) %MON RT_Es008_del2                =   5.0700689298480E-04
(PID.TID 0000.0001) %MON RT_Es009_max                 =   6.5688103556633E+00
(PID.TID 0000.0001) %MON RT_Es009_min                 =   9.3843255671619E-37
(PID.TID 0000.0001) %MON RT_Es009_mean                =   4.0587017598145E+00
(PID.TID 0000.0001) %MON RT_Es009_sd                  =   1.6229183582003E+00
(PID.TID 0000.0001) %MON RT_Es009_del2                =   4.8106969904241E-04
(PID.TID 0000.0001) %MON RT_Es010_max                 =   6.4139706770579E+00
(PID.TID 0000.0001) %MON RT_Es010_min                 =   9.3843309033064E-37
(PID.TID 0000.0001) %MON RT_Es010_mean                =   3.9763208232368E+00
(PID.TID 0000.0001) %MON RT_Es010_sd                  =   1.5878643307508E+00
(PID.TID 0000.0001) %MON RT_Es010_del2                =   4.7520700316307E-04
(PID.TID 0000.0001) %MON RT_Es011_max                 =   6.0373993734519E+00
(PID.TID 0000.0001) %MON RT_Es011_min                 =   9.3843349054148E-37
(PID.TID 0000.0001) %MON RT_Es011_mean                =   3.7217893060932E+00
(PID.TID 0000.0001) %MON RT_Es011_sd                  =   1.4841506676103E+00
(PID.TID 0000.0001) %MON RT_Es011_del2                =   4.5529068904619E-04
(PID.TID 0000.0001) %MON RT_Es012_max                 =   5.4181390066942E+00
(PID.TID 0000.0001) %MON RT_Es012_min                 =   9.3843406862381E-37
(PID.TID 0000.0001) %MON RT_Es012_mean                =   3.3338882080704E+00
(PID.TID 0000.0001) %MON RT_Es012_sd                  =   1.3447373338498E+00
(PID.TID 0000.0001) %MON RT_Es012_del2                =   4.0895374426036E-04
(PID.TID 0000.0001) %MON RT_Es013_max                 =   2.6720956792434E+00
(PID.TID 0000.0001) %MON RT_Es013_min                 =   9.3843500244911E-37
(PID.TID 0000.0001) %MON RT_Es013_mean                =   1.6316541067078E+00
(PID.TID 0000.0001) %MON RT_Es013_sd                  =   6.5784232447269E-01
(PID.TID 0000.0001) %MON RT_Es013_del2                =   2.0392519530273E-04
(PID.TID 0000.0001) // =======================================================
(PID.TID 0000.0001) // End MONITOR RADTRANS statistics
(PID.TID 0000.0001) // =======================================================
(PID.TID 0000.0001) // =======================================================
(PID.TID 0000.0001) // Begin MONITOR DARWIN statistics
(PID.TID 0000.0001) // =======================================================
(PID.TID 0000.0001) %MON darwin_tsnumber              =                     3
(PID.TID 0000.0001) %MON darwin_time_sec              =   1.0800000000000E+04
(PID.TID 0000.0001) %MON darwin_surfPAR_max           =   0.0000000000000E+00
(PID.TID 0000.0001) %MON darwin_surfPAR_min           =   0.0000000000000E+00
(PID.TID 0000.0001) %MON darwin_surfPAR_mean          =   0.0000000000000E+00
(PID.TID 0000.0001) %MON darwin_surfPAR_sd            =   0.0000000000000E+00
(PID.TID 0000.0001) %MON darwin_surfPAR_del2          =   0.0000000000000E+00
(PID.TID 0000.0001) %MON darwin_inputFe_max           =   4.8091420114856E-09
(PID.TID 0000.0001) %MON darwin_inputFe_min           =   7.4781132517145E-12
(PID.TID 0000.0001) %MON darwin_inputFe_mean          =   4.3474959920318E-10
(PID.TID 0000.0001) %MON darwin_inputFe_sd            =   5.1801081120976E-10
(PID.TID 0000.0001) %MON darwin_inputFe_del2          =   1.6349383357163E-13
(PID.TID 0000.0001) %MON darwin_iceFrac_max           =   1.0000000000000E+00
(PID.TID 0000.0001) %MON darwin_iceFrac_min           =   0.0000000000000E+00
(PID.TID 0000.0001) %MON darwin_iceFrac_mean          =   6.1021864461893E-03
(PID.TID 0000.0001) %MON darwin_iceFrac_sd            =   6.6379819626694E-02
(PID.TID 0000.0001) %MON darwin_iceFrac_del2          =   2.7932293913319E-04
(PID.TID 0000.0001) %MON darwin_windSpeed_max         =   1.4272332549095E+01
(PID.TID 0000.0001) %MON darwin_windSpeed_min         =   2.1544499248266E+00
(PID.TID 0000.0001) %MON darwin_windSpeed_mean        =   7.6790234473148E+00
(PID.TID 0000.0001) %MON darwin_windSpeed_sd          =   2.3580283105830E+00
(PID.TID 0000.0001) %MON darwin_windSpeed_del2        =   8.2319091008523E-04
(PID.TID 0000.0001) %MON darwin_atmospCO2_max         =   2.7800000000000E-04
(PID.TID 0000.0001) %MON darwin_atmospCO2_min         =   2.7800000000000E-04
(PID.TID 0000.0001) %MON darwin_atmospCO2_mean        =   2.7800000000000E-04
(PID.TID 0000.0001) %MON darwin_atmospCO2_sd          =   5.4210108624275E-19
(PID.TID 0000.0001) %MON darwin_atmospCO2_del2        =   0.0000000000000E+00
(PID.TID 0000.0001) %MON darwin_ventHe3_max           =   0.0000000000000E+00
(PID.TID 0000.0001) %MON darwin_ventHe3_min           =   0.0000000000000E+00
(PID.TID 0000.0001) %MON darwin_ventHe3_mean          =   0.0000000000000E+00
(PID.TID 0000.0001) %MON darwin_ventHe3_sd            =   0.0000000000000E+00
(PID.TID 0000.0001) %MON darwin_ventHe3_del2          =   0.0000000000000E+00
(PID.TID 0000.0001) %MON darwin_DOCrunoff_max         =   0.0000000000000E+00
(PID.TID 0000.0001) %MON darwin_DOCrunoff_min         =   0.0000000000000E+00
(PID.TID 0000.0001) %MON darwin_DOCrunoff_mean        =   0.0000000000000E+00
(PID.TID 0000.0001) %MON darwin_DOCrunoff_sd          =   0.0000000000000E+00
(PID.TID 0000.0001) %MON darwin_DOCrunoff_del2        =   0.0000000000000E+00
(PID.TID 0000.0001) %MON darwin_DONrunoff_max         =   0.0000000000000E+00
(PID.TID 0000.0001) %MON darwin_DONrunoff_min         =   0.0000000000000E+00
(PID.TID 0000.0001) %MON darwin_DONrunoff_mean        =   0.0000000000000E+00
(PID.TID 0000.0001) %MON darwin_DONrunoff_sd          =   0.0000000000000E+00
(PID.TID 0000.0001) %MON darwin_DONrunoff_del2        =   0.0000000000000E+00
(PID.TID 0000.0001) %MON darwin_DOPrunoff_max         =   0.0000000000000E+00
(PID.TID 0000.0001) %MON darwin_DOPrunoff_min         =   0.0000000000000E+00
(PID.TID 0000.0001) %MON darwin_DOPrunoff_mean        =   0.0000000000000E+00
(PID.TID 0000.0001) %MON darwin_DOPrunoff_sd          =   0.0000000000000E+00
(PID.TID 0000.0001) %MON darwin_DOPrunoff_del2        =   0.0000000000000E+00
(PID.TID 0000.0001) %MON darwin_DINrunoff_max         =   0.0000000000000E+00
(PID.TID 0000.0001) %MON darwin_DINrunoff_min         =   0.0000000000000E+00
(PID.TID 0000.0001) %MON darwin_DINrunoff_mean        =   0.0000000000000E+00
(PID.TID 0000.0001) %MON darwin_DINrunoff_sd          =   0.0000000000000E+00
(PID.TID 0000.0001) %MON darwin_DINrunoff_del2        =   0.0000000000000E+00
(PID.TID 0000.0001) %MON darwin_IPrunoff_max          =   0.0000000000000E+00
(PID.TID 0000.0001) %MON darwin_IPrunoff_min          =   0.0000000000000E+00
(PID.TID 0000.0001) %MON darwin_IPrunoff_mean         =   0.0000000000000E+00
(PID.TID 0000.0001) %MON darwin_IPrunoff_sd           =   0.0000000000000E+00
(PID.TID 0000.0001) %MON darwin_IPrunoff_del2         =   0.0000000000000E+00
(PID.TID 0000.0001) %MON darwin_DSirunoff_max         =   0.0000000000000E+00
(PID.TID 0000.0001) %MON darwin_DSirunoff_min         =   0.0000000000000E+00
(PID.TID 0000.0001) %MON darwin_DSirunoff_mean        =   0.0000000000000E+00
(PID.TID 0000.0001) %MON darwin_DSirunoff_sd          =   0.0000000000000E+00
(PID.TID 0000.0001) %MON darwin_DSirunoff_del2        =   0.0000000000000E+00
(PID.TID 0000.0001) %MON darwin_POCrunoff_max         =   0.0000000000000E+00
(PID.TID 0000.0001) %MON darwin_POCrunoff_min         =   0.0000000000000E+00
(PID.TID 0000.0001) %MON darwin_POCrunoff_mean        =   0.0000000000000E+00
(PID.TID 0000.0001) %MON darwin_POCrunoff_sd          =   0.0000000000000E+00
(PID.TID 0000.0001) %MON darwin_POCrunoff_del2        =   0.0000000000000E+00
(PID.TID 0000.0001) %MON darwin_POPrunoff_max         =   0.0000000000000E+00
(PID.TID 0000.0001) %MON darwin_POPrunoff_min         =   0.0000000000000E+00
(PID.TID 0000.0001) %MON darwin_POPrunoff_mean        =   0.0000000000000E+00
(PID.TID 0000.0001) %MON darwin_POPrunoff_sd          =   0.0000000000000E+00
(PID.TID 0000.0001) %MON darwin_POPrunoff_del2        =   0.0000000000000E+00
(PID.TID 0000.0001) %MON darwin_PONrunoff_max         =   0.0000000000000E+00
(PID.TID 0000.0001) %MON darwin_PONrunoff_min         =   0.0000000000000E+00
(PID.TID 0000.0001) %MON darwin_PONrunoff_mean        =   0.0000000000000E+00
(PID.TID 0000.0001) %MON darwin_PONrunoff_sd          =   0.0000000000000E+00
(PID.TID 0000.0001) %MON darwin_PONrunoff_del2        =   0.0000000000000E+00
(PID.TID 0000.0001) %MON darwin_DICrunoff_max         =   0.0000000000000E+00
(PID.TID 0000.0001) %MON darwin_DICrunoff_min         =   0.0000000000000E+00
(PID.TID 0000.0001) %MON darwin_DICrunoff_mean        =   0.0000000000000E+00
(PID.TID 0000.0001) %MON darwin_DICrunoff_sd          =   0.0000000000000E+00
(PID.TID 0000.0001) %MON darwin_DICrunoff_del2        =   0.0000000000000E+00
(PID.TID 0000.0001) // =======================================================
(PID.TID 0000.0001) // End MONITOR DARWIN statistics
(PID.TID 0000.0001) // =======================================================
(PID.TID 0000.0001) // =======================================================
(PID.TID 0000.0001) // Begin MONITOR dynamic field statistics
(PID.TID 0000.0001) // =======================================================
(PID.TID 0000.0001) %MON time_tsnumber                =                     4
(PID.TID 0000.0001) %MON time_secondsf                =   1.4400000000000E+04
(PID.TID 0000.0001) %MON dynstat_eta_max              =   0.0000000000000E+00
(PID.TID 0000.0001) %MON dynstat_eta_min              =   0.0000000000000E+00
(PID.TID 0000.0001) %MON dynstat_eta_mean             =   0.0000000000000E+00
(PID.TID 0000.0001) %MON dynstat_eta_sd               =   0.0000000000000E+00
(PID.TID 0000.0001) %MON dynstat_eta_del2             =   0.0000000000000E+00
(PID.TID 0000.0001) %MON dynstat_uvel_max             =   7.9929898182551E-01
(PID.TID 0000.0001) %MON dynstat_uvel_min             =  -8.0240646998088E-01
(PID.TID 0000.0001) %MON dynstat_uvel_mean            =   2.3235593902553E-03
(PID.TID 0000.0001) %MON dynstat_uvel_sd              =   2.2872628115977E-02
(PID.TID 0000.0001) %MON dynstat_uvel_del2            =   2.5666692908702E-05
(PID.TID 0000.0001) %MON dynstat_vvel_max             =   1.2489283879598E+00
(PID.TID 0000.0001) %MON dynstat_vvel_min             =  -9.2241825411717E-01
(PID.TID 0000.0001) %MON dynstat_vvel_mean            =  -1.6422290449826E-05
(PID.TID 0000.0001) %MON dynstat_vvel_sd              =   1.1724227000820E-02
(PID.TID 0000.0001) %MON dynstat_vvel_del2            =   2.3767458172051E-05
(PID.TID 0000.0001) %MON dynstat_wvel_max             =   5.6044008912674E-04
(PID.TID 0000.0001) %MON dynstat_wvel_min             =  -6.3009187579155E-04
(PID.TID 0000.0001) %MON dynstat_wvel_mean            =   2.2214341155672E-14
(PID.TID 0000.0001) %MON dynstat_wvel_sd              =   1.0435709730302E-05
(PID.TID 0000.0001) %MON dynstat_wvel_del2            =   1.9189990871108E-08
(PID.TID 0000.0001) %MON dynstat_theta_max            =   3.1829095840454E+01
(PID.TID 0000.0001) %MON dynstat_theta_min            =  -2.6680278778076E+00
(PID.TID 0000.0001) %MON dynstat_theta_mean           =   3.6067305518423E+00
(PID.TID 0000.0001) %MON dynstat_theta_sd             =   4.4524799480359E+00
(PID.TID 0000.0001) %MON dynstat_theta_del2           =   3.6664659173690E-04
(PID.TID 0000.0001) %MON dynstat_salt_max             =   3.9532699584961E+01
(PID.TID 0000.0001) %MON dynstat_salt_min             =   2.6542177836100E+01
(PID.TID 0000.0001) %MON dynstat_salt_mean            =   3.4722133657119E+01
(PID.TID 0000.0001) %MON dynstat_salt_sd              =   3.6496331761213E-01
(PID.TID 0000.0001) %MON dynstat_salt_del2            =   6.9915617628963E-05
(PID.TID 0000.0001) %MON dynstat_sst_max              =   3.1829095840454E+01
(PID.TID 0000.0001) %MON dynstat_sst_min              =  -1.9897443453471E+00
(PID.TID 0000.0001) %MON dynstat_sst_mean             =   1.9165055021311E+01
(PID.TID 0000.0001) %MON dynstat_sst_sd               =   9.5430561709696E+00
(PID.TID 0000.0001) %MON dynstat_sst_del2             =   2.1992727600189E-03
(PID.TID 0000.0001) %MON dynstat_sss_max              =   3.9532699584961E+01
(PID.TID 0000.0001) %MON dynstat_sss_min              =   2.6542177836100E+01
(PID.TID 0000.0001) %MON dynstat_sss_mean             =   3.4860954182091E+01
(PID.TID 0000.0001) %MON dynstat_sss_sd               =   1.0794579334980E+00
(PID.TID 0000.0001) %MON dynstat_sss_del2             =   6.0022475453677E-04
(PID.TID 0000.0001) %MON forcing_qnet_max             =   0.0000000000000E+00
(PID.TID 0000.0001) %MON forcing_qnet_min             =   0.0000000000000E+00
(PID.TID 0000.0001) %MON forcing_qnet_mean            =   0.0000000000000E+00
(PID.TID 0000.0001) %MON forcing_qnet_sd              =   0.0000000000000E+00
(PID.TID 0000.0001) %MON forcing_qnet_del2            =   0.0000000000000E+00
(PID.TID 0000.0001) %MON forcing_qsw_max              =   0.0000000000000E+00
(PID.TID 0000.0001) %MON forcing_qsw_min              =   0.0000000000000E+00
(PID.TID 0000.0001) %MON forcing_qsw_mean             =   0.0000000000000E+00
(PID.TID 0000.0001) %MON forcing_qsw_sd               =   0.0000000000000E+00
(PID.TID 0000.0001) %MON forcing_qsw_del2             =   0.0000000000000E+00
(PID.TID 0000.0001) %MON forcing_empmr_max            =   0.0000000000000E+00
(PID.TID 0000.0001) %MON forcing_empmr_min            =   0.0000000000000E+00
(PID.TID 0000.0001) %MON forcing_empmr_mean           =   0.0000000000000E+00
(PID.TID 0000.0001) %MON forcing_empmr_sd             =   0.0000000000000E+00
(PID.TID 0000.0001) %MON forcing_empmr_del2           =   0.0000000000000E+00
(PID.TID 0000.0001) %MON forcing_fu_max               =   0.0000000000000E+00
(PID.TID 0000.0001) %MON forcing_fu_min               =   0.0000000000000E+00
(PID.TID 0000.0001) %MON forcing_fu_mean              =   0.0000000000000E+00
(PID.TID 0000.0001) %MON forcing_fu_sd                =   0.0000000000000E+00
(PID.TID 0000.0001) %MON forcing_fu_del2              =   0.0000000000000E+00
(PID.TID 0000.0001) %MON forcing_fv_max               =   0.0000000000000E+00
(PID.TID 0000.0001) %MON forcing_fv_min               =   0.0000000000000E+00
(PID.TID 0000.0001) %MON forcing_fv_mean              =   0.0000000000000E+00
(PID.TID 0000.0001) %MON forcing_fv_sd                =   0.0000000000000E+00
(PID.TID 0000.0001) %MON forcing_fv_del2              =   0.0000000000000E+00
(PID.TID 0000.0001) %MON trAdv_CFL_u_max              =   4.3017648924962E-02
(PID.TID 0000.0001) %MON trAdv_CFL_v_max              =   4.2017522678244E-02
(PID.TID 0000.0001) %MON trAdv_CFL_w_max              =   7.6140471064718E-02
(PID.TID 0000.0001) %MON advcfl_uvel_max              =   4.1778341408943E-02
(PID.TID 0000.0001) %MON advcfl_vvel_max              =   4.0441125896236E-02
(PID.TID 0000.0001) %MON advcfl_wvel_max              =   8.9670414260278E-02
(PID.TID 0000.0001) %MON advcfl_W_hf_max              =   1.0087921604281E-01
(PID.TID 0000.0001) %MON pe_b_mean                    =   0.0000000000000E+00
(PID.TID 0000.0001) %MON ke_max                       =   6.3839615481872E-01
(PID.TID 0000.0001) %MON ke_mean                      =   3.1939991654939E-04
(PID.TID 0000.0001) %MON ke_vol                       =   1.3258927395736E+18
(PID.TID 0000.0001) %MON vort_r_min                   =  -1.2777323849346E-05
(PID.TID 0000.0001) %MON vort_r_max                   =   1.5367188948671E-05
(PID.TID 0000.0001) %MON vort_a_mean                  =  -2.1443554618601E-05
(PID.TID 0000.0001) %MON vort_a_sd                    =   7.3250396239086E-05
(PID.TID 0000.0001) %MON vort_p_mean                  =  -2.3136237674310E-05
(PID.TID 0000.0001) %MON vort_p_sd                    =   8.5528150649214E-05
(PID.TID 0000.0001) %MON surfExpan_theta_mean         =  -6.3943866278836E-08
(PID.TID 0000.0001) %MON surfExpan_salt_mean          =   7.2693993818743E-09
(PID.TID 0000.0001) // =======================================================
(PID.TID 0000.0001) // End MONITOR dynamic field statistics
(PID.TID 0000.0001) // =======================================================
(PID.TID 0000.0001) // =======================================================
(PID.TID 0000.0001) // Begin MONITOR ptracer field statistics
(PID.TID 0000.0001) // =======================================================
(PID.TID 0000.0001) %MON trcstat_ptracer01_max        =   2.4112463505673E+03
(PID.TID 0000.0001) %MON trcstat_ptracer01_min        =   1.7254943693261E+03
(PID.TID 0000.0001) %MON trcstat_ptracer01_mean       =   2.2529003766594E+03
(PID.TID 0000.0001) %MON trcstat_ptracer01_sd         =   8.1238785165514E+01
(PID.TID 0000.0001) %MON trcstat_ptracer01_del2       =   8.1843173737326E-03
(PID.TID 0000.0001) %MON trcstat_ptracer02_max        =   4.4817873960198E+01
(PID.TID 0000.0001) %MON trcstat_ptracer02_min        =  -1.3878697604290E-01
(PID.TID 0000.0001) %MON trcstat_ptracer02_mean       =   3.0672963338184E+01
(PID.TID 0000.0001) %MON trcstat_ptracer02_sd         =   9.1048510308017E+00
(PID.TID 0000.0001) %MON trcstat_ptracer02_del2       =   7.1258573622532E-04
(PID.TID 0000.0001) %MON trcstat_ptracer03_max        =   8.5649574970468E+00
(PID.TID 0000.0001) %MON trcstat_ptracer03_min        =  -5.0945023930505E-09
(PID.TID 0000.0001) %MON trcstat_ptracer03_mean       =   2.0001716111222E-02
(PID.TID 0000.0001) %MON trcstat_ptracer03_sd         =   1.4833783745045E-01
(PID.TID 0000.0001) %MON trcstat_ptracer03_del2       =   2.0547348095576E-04
(PID.TID 0000.0001) %MON trcstat_ptracer04_max        =   1.3280823193964E+01
(PID.TID 0000.0001) %MON trcstat_ptracer04_min        =  -1.2618641780223E-07
(PID.TID 0000.0001) %MON trcstat_ptracer04_mean       =   7.3519699421927E-02
(PID.TID 0000.0001) %MON trcstat_ptracer04_sd         =   5.8113645402220E-01
(PID.TID 0000.0001) %MON trcstat_ptracer04_del2       =   3.0329485178934E-04
(PID.TID 0000.0001) %MON trcstat_ptracer05_max        =   3.5973362956579E+00
(PID.TID 0000.0001) %MON trcstat_ptracer05_min        =   8.4470881320792E-02
(PID.TID 0000.0001) %MON trcstat_ptracer05_mean       =   2.1791574936575E+00
(PID.TID 0000.0001) %MON trcstat_ptracer05_sd         =   6.1923389234658E-01
(PID.TID 0000.0001) %MON trcstat_ptracer05_del2       =   3.8077662625113E-05
(PID.TID 0000.0001) %MON trcstat_ptracer06_max        =   1.0590050891853E-03
(PID.TID 0000.0001) %MON trcstat_ptracer06_min        =  -7.0627851406952E-05
(PID.TID 0000.0001) %MON trcstat_ptracer06_mean       =   6.2642535692812E-04
(PID.TID 0000.0001) %MON trcstat_ptracer06_sd         =   1.9488096334791E-04
(PID.TID 0000.0001) %MON trcstat_ptracer06_del2       =   8.0575098623350E-08
(PID.TID 0000.0001) %MON trcstat_ptracer07_max        =   2.7520523959034E+02
(PID.TID 0000.0001) %MON trcstat_ptracer07_min        =   1.1357210569615E+00
(PID.TID 0000.0001) %MON trcstat_ptracer07_mean       =   9.0930635235032E+01
(PID.TID 0000.0001) %MON trcstat_ptracer07_sd         =   5.1624184214026E+01
(PID.TID 0000.0001) %MON trcstat_ptracer07_del2       =   1.3904781413954E-03
(PID.TID 0000.0001) %MON trcstat_ptracer08_max        =   2.7664102595812E+02
(PID.TID 0000.0001) %MON trcstat_ptracer08_min        =   2.9190195006982E-08
(PID.TID 0000.0001) %MON trcstat_ptracer08_mean       =   1.5408358050216E-01
(PID.TID 0000.0001) %MON trcstat_ptracer08_sd         =   1.0179665361892E+00
(PID.TID 0000.0001) %MON trcstat_ptracer08_del2       =   1.1942399034309E-03
(PID.TID 0000.0001) %MON trcstat_ptracer09_max        =   3.9125941419934E+01
(PID.TID 0000.0001) %MON trcstat_ptracer09_min        =  -1.3835302468293E-07
(PID.TID 0000.0001) %MON trcstat_ptracer09_mean       =   1.8944533656088E-02
(PID.TID 0000.0001) %MON trcstat_ptracer09_sd         =   1.1651399382195E-01
(PID.TID 0000.0001) %MON trcstat_ptracer09_del2       =   9.6526039948841E-05
(PID.TID 0000.0001) %MON trcstat_ptracer10_max        =   2.3054050407951E+00
(PID.TID 0000.0001) %MON trcstat_ptracer10_min        =  -1.8226804770903E-09
(PID.TID 0000.0001) %MON trcstat_ptracer10_mean       =   2.0660253479589E-04
(PID.TID 0000.0001) %MON trcstat_ptracer10_sd         =   3.5918043044300E-03
(PID.TID 0000.0001) %MON trcstat_ptracer10_del2       =   1.0338093662576E-06
(PID.TID 0000.0001) %MON trcstat_ptracer11_max        =   7.0676268005255E-03
(PID.TID 0000.0001) %MON trcstat_ptracer11_min        =  -7.7587893711418E-11
(PID.TID 0000.0001) %MON trcstat_ptracer11_mean       =   8.9884608590642E-06
(PID.TID 0000.0001) %MON trcstat_ptracer11_sd         =   4.4030751548736E-05
(PID.TID 0000.0001) %MON trcstat_ptracer11_del2       =   4.3696238630435E-08
(PID.TID 0000.0001) %MON trcstat_ptracer12_max        =   1.0477757639963E+03
(PID.TID 0000.0001) %MON trcstat_ptracer12_min        =   3.2947291032196E-09
(PID.TID 0000.0001) %MON trcstat_ptracer12_mean       =   2.3785662232940E-02
(PID.TID 0000.0001) %MON trcstat_ptracer12_sd         =   1.6018331201025E+00
(PID.TID 0000.0001) %MON trcstat_ptracer12_del2       =   1.2292453850704E-04
(PID.TID 0000.0001) %MON trcstat_ptracer13_max        =   1.4830109364775E+02
(PID.TID 0000.0001) %MON trcstat_ptracer13_min        =  -3.5102546461107E-09
(PID.TID 0000.0001) %MON trcstat_ptracer13_mean       =   3.0623728204106E-03
(PID.TID 0000.0001) %MON trcstat_ptracer13_sd         =   2.2787145563712E-01
(PID.TID 0000.0001) %MON trcstat_ptracer13_del2       =   1.4742603823926E-05
(PID.TID 0000.0001) %MON trcstat_ptracer14_max        =   8.5846680209582E+00
(PID.TID 0000.0001) %MON trcstat_ptracer14_min        =  -2.2183375426322E-11
(PID.TID 0000.0001) %MON trcstat_ptracer14_mean       =   5.7188640442348E-05
(PID.TID 0000.0001) %MON trcstat_ptracer14_sd         =   1.2928817457374E-02
(PID.TID 0000.0001) %MON trcstat_ptracer14_del2       =   1.9408302267811E-07
(PID.TID 0000.0001) %MON trcstat_ptracer15_max        =   1.0527130865798E-02
(PID.TID 0000.0001) %MON trcstat_ptracer15_min        =  -7.3478227380657E-13
(PID.TID 0000.0001) %MON trcstat_ptracer15_mean       =   1.2264585338722E-06
(PID.TID 0000.0001) %MON trcstat_ptracer15_sd         =   1.8501327107008E-05
(PID.TID 0000.0001) %MON trcstat_ptracer15_del2       =   7.7252671055428E-09
(PID.TID 0000.0001) %MON trcstat_ptracer16_max        =   2.5130240480723E+01
(PID.TID 0000.0001) %MON trcstat_ptracer16_min        =  -1.8223852593372E-07
(PID.TID 0000.0001) %MON trcstat_ptracer16_mean       =   1.4885164352690E-02
(PID.TID 0000.0001) %MON trcstat_ptracer16_sd         =   1.1611216417061E-01
(PID.TID 0000.0001) %MON trcstat_ptracer16_del2       =   1.0094223019157E-05
(PID.TID 0000.0001) %MON trcstat_ptracer17_max        =   1.6447094284340E+01
(PID.TID 0000.0001) %MON trcstat_ptracer17_min        =  -5.2822214280328E-08
(PID.TID 0000.0001) %MON trcstat_ptracer17_mean       =   6.2368645130758E-03
(PID.TID 0000.0001) %MON trcstat_ptracer17_sd         =   5.6817364007045E-02
(PID.TID 0000.0001) %MON trcstat_ptracer17_del2       =   1.3368129098641E-05
(PID.TID 0000.0001) %MON trcstat_ptracer18_max        =   2.5680017137593E+03
(PID.TID 0000.0001) %MON trcstat_ptracer18_min        =   2.0145463744805E+03
(PID.TID 0000.0001) %MON trcstat_ptracer18_mean       =   2.3641769640986E+03
(PID.TID 0000.0001) %MON trcstat_ptracer18_sd         =   4.2024982406954E+01
(PID.TID 0000.0001) %MON trcstat_ptracer18_del2       =   4.9082131014616E-03
(PID.TID 0000.0001) %MON trcstat_ptracer19_max        =   3.8518736742706E+02
(PID.TID 0000.0001) %MON trcstat_ptracer19_min        =   2.9930135011187E-05
(PID.TID 0000.0001) %MON trcstat_ptracer19_mean       =   2.0399521086240E+01
(PID.TID 0000.0001) %MON trcstat_ptracer19_sd         =   5.4788476069728E+01
(PID.TID 0000.0001) %MON trcstat_ptracer19_del2       =   1.3373641976050E-02
(PID.TID 0000.0001) %MON trcstat_ptracer20_max        =   9.8840953355956E-02
(PID.TID 0000.0001) %MON trcstat_ptracer20_min        =  -9.7276745775050E-12
(PID.TID 0000.0001) %MON trcstat_ptracer20_mean       =   4.2679468435773E-05
(PID.TID 0000.0001) %MON trcstat_ptracer20_sd         =   1.6128990372564E-04
(PID.TID 0000.0001) %MON trcstat_ptracer20_del2       =   2.0806986595527E-08
(PID.TID 0000.0001) %MON trcstat_ptracer21_max        =   6.5246802643667E+01
(PID.TID 0000.0001) %MON trcstat_ptracer21_min        =  -1.0782889181839E-06
(PID.TID 0000.0001) %MON trcstat_ptracer21_mean       =   1.1838220426190E-01
(PID.TID 0000.0001) %MON trcstat_ptracer21_sd         =   9.7143966918584E-01
(PID.TID 0000.0001) %MON trcstat_ptracer21_del2       =   1.2761943250414E-03
(PID.TID 0000.0001) %MON trcstat_ptracer22_max        =   2.2005399780586E+01
(PID.TID 0000.0001) %MON trcstat_ptracer22_min        =  -2.2242147275547E-07
(PID.TID 0000.0001) %MON trcstat_ptracer22_mean       =   2.3751893755467E-02
(PID.TID 0000.0001) %MON trcstat_ptracer22_sd         =   2.3884604901417E-01
(PID.TID 0000.0001) %MON trcstat_ptracer22_del2       =   4.5459811894958E-04
(PID.TID 0000.0001) %MON trcstat_ptracer23_max        =   4.0214993570819E-11
(PID.TID 0000.0001) %MON trcstat_ptracer23_min        =  -9.6000221387611E-20
(PID.TID 0000.0001) %MON trcstat_ptracer23_mean       =   1.4713534901351E-13
(PID.TID 0000.0001) %MON trcstat_ptracer23_sd         =   5.4346837868191E-13
(PID.TID 0000.0001) %MON trcstat_ptracer23_del2       =   1.7960158620337E-16
(PID.TID 0000.0001) %MON trcstat_ptracer24_max        =   4.0214993570819E-11
(PID.TID 0000.0001) %MON trcstat_ptracer24_min        =  -9.6000221387611E-20
(PID.TID 0000.0001) %MON trcstat_ptracer24_mean       =   1.4713534901351E-13
(PID.TID 0000.0001) %MON trcstat_ptracer24_sd         =   5.4346837868191E-13
(PID.TID 0000.0001) %MON trcstat_ptracer24_del2       =   1.7960158620337E-16
(PID.TID 0000.0001) %MON trcstat_ptracer25_max        =   7.1411205314798E+00
(PID.TID 0000.0001) %MON trcstat_ptracer25_min        =  -5.7906951851414E-08
(PID.TID 0000.0001) %MON trcstat_ptracer25_mean       =   1.4421048932701E-02
(PID.TID 0000.0001) %MON trcstat_ptracer25_sd         =   1.0478526530341E-01
(PID.TID 0000.0001) %MON trcstat_ptracer25_del2       =   1.4207054592947E-04
(PID.TID 0000.0001) %MON trcstat_ptracer26_max        =   3.7327845644701E+00
(PID.TID 0000.0001) %MON trcstat_ptracer26_min        =  -1.8283996431747E-08
(PID.TID 0000.0001) %MON trcstat_ptracer26_mean       =   3.4107645225131E-03
(PID.TID 0000.0001) %MON trcstat_ptracer26_sd         =   3.3793997150785E-02
(PID.TID 0000.0001) %MON trcstat_ptracer26_del2       =   6.6615899190651E-05
(PID.TID 0000.0001) %MON trcstat_ptracer27_max        =   6.0701875745042E-12
(PID.TID 0000.0001) %MON trcstat_ptracer27_min        =  -1.4490599503981E-20
(PID.TID 0000.0001) %MON trcstat_ptracer27_mean       =   2.2209109285554E-14
(PID.TID 0000.0001) %MON trcstat_ptracer27_sd         =   8.2032962814502E-14
(PID.TID 0000.0001) %MON trcstat_ptracer27_del2       =   2.7109673388373E-17
(PID.TID 0000.0001) %MON trcstat_ptracer28_max        =   6.0701875745042E-12
(PID.TID 0000.0001) %MON trcstat_ptracer28_min        =  -1.4490599503981E-20
(PID.TID 0000.0001) %MON trcstat_ptracer28_mean       =   2.2209109285554E-14
(PID.TID 0000.0001) %MON trcstat_ptracer28_sd         =   8.2032962814502E-14
(PID.TID 0000.0001) %MON trcstat_ptracer28_del2       =   2.7109673388373E-17
(PID.TID 0000.0001) %MON trcstat_ptracer29_max        =   8.5842401493342E-02
(PID.TID 0000.0001) %MON trcstat_ptracer29_min        =  -1.0441074957637E-09
(PID.TID 0000.0001) %MON trcstat_ptracer29_mean       =   1.6078750764405E-04
(PID.TID 0000.0001) %MON trcstat_ptracer29_sd         =   1.2064809192718E-03
(PID.TID 0000.0001) %MON trcstat_ptracer29_del2       =   1.6294994480962E-06
(PID.TID 0000.0001) %MON trcstat_ptracer30_max        =   5.2300202641501E-02
(PID.TID 0000.0001) %MON trcstat_ptracer30_min        =  -2.5892710856719E-10
(PID.TID 0000.0001) %MON trcstat_ptracer30_mean       =   3.4914129398743E-05
(PID.TID 0000.0001) %MON trcstat_ptracer30_sd         =   3.6134005901558E-04
(PID.TID 0000.0001) %MON trcstat_ptracer30_del2       =   9.1508160227687E-07
(PID.TID 0000.0001) %MON trcstat_ptracer31_max        =   2.3711670212907E-14
(PID.TID 0000.0001) %MON trcstat_ptracer31_min        =  -5.6603904312427E-23
(PID.TID 0000.0001) %MON trcstat_ptracer31_mean       =   8.6754333146697E-17
(PID.TID 0000.0001) %MON trcstat_ptracer31_sd         =   3.2044126099415E-16
(PID.TID 0000.0001) %MON trcstat_ptracer31_del2       =   1.0589716167333E-19
(PID.TID 0000.0001) %MON trcstat_ptracer32_max        =   2.3711670212907E-14
(PID.TID 0000.0001) %MON trcstat_ptracer32_min        =  -5.6603904312427E-23
(PID.TID 0000.0001) %MON trcstat_ptracer32_mean       =   8.6754333146697E-17
(PID.TID 0000.0001) %MON trcstat_ptracer32_sd         =   3.2044126099415E-16
(PID.TID 0000.0001) %MON trcstat_ptracer32_del2       =   1.0589716167333E-19
(PID.TID 0000.0001) %MON trcstat_ptracer33_max        =   2.9258662250643E-03
(PID.TID 0000.0001) %MON trcstat_ptracer33_min        =  -4.0300014122486E-11
(PID.TID 0000.0001) %MON trcstat_ptracer33_mean       =   7.2276673531220E-06
(PID.TID 0000.0001) %MON trcstat_ptracer33_sd         =   4.3883809884830E-05
(PID.TID 0000.0001) %MON trcstat_ptracer33_del2       =   4.8770581796748E-08
(PID.TID 0000.0001) %MON trcstat_ptracer34_max        =   1.0546607562275E-03
(PID.TID 0000.0001) %MON trcstat_ptracer34_min        =  -1.4905001125974E-11
(PID.TID 0000.0001) %MON trcstat_ptracer34_mean       =   1.5439537581541E-06
(PID.TID 0000.0001) %MON trcstat_ptracer34_sd         =   1.1019898156659E-05
(PID.TID 0000.0001) %MON trcstat_ptracer34_del2       =   1.7498124502774E-08
(PID.TID 0000.0001) %MON trcstat_ptracer35_max        =   4.0214994155641E-14
(PID.TID 0000.0001) %MON trcstat_ptracer35_min        =  -9.6000221481421E-23
(PID.TID 0000.0001) %MON trcstat_ptracer35_mean       =   1.4713534901068E-16
(PID.TID 0000.0001) %MON trcstat_ptracer35_sd         =   5.4346837865030E-16
(PID.TID 0000.0001) %MON trcstat_ptracer35_del2       =   1.7960158615635E-19
(PID.TID 0000.0001) %MON trcstat_ptracer36_max        =   4.0214994155641E-14
(PID.TID 0000.0001) %MON trcstat_ptracer36_min        =  -9.6000221481421E-23
(PID.TID 0000.0001) %MON trcstat_ptracer36_mean       =   1.4713534901068E-16
(PID.TID 0000.0001) %MON trcstat_ptracer36_sd         =   5.4346837865030E-16
(PID.TID 0000.0001) %MON trcstat_ptracer36_del2       =   1.7960158615635E-19
(PID.TID 0000.0001) // =======================================================
(PID.TID 0000.0001) // End MONITOR ptracer field statistics
(PID.TID 0000.0001) // =======================================================
 Computing Diagnostic #    267  TRAC01       Counter:       1   Parms: SMR     MR      
 Computing Diagnostic #    282  TRAC02       Counter:       1   Parms: SMR     MR      
 Computing Diagnostic #    297  TRAC03       Counter:       1   Parms: SMR     MR      
 Computing Diagnostic #    312  TRAC04       Counter:       1   Parms: SMR     MR      
 Computing Diagnostic #    327  TRAC05       Counter:       1   Parms: SMR     MR      
 Computing Diagnostic #    342  TRAC06       Counter:       1   Parms: SMR     MR      
 Computing Diagnostic #    357  TRAC07       Counter:       1   Parms: SMR     MR      
 Computing Diagnostic #    372  TRAC08       Counter:       1   Parms: SMR     MR      
 Computing Diagnostic #    387  TRAC09       Counter:       1   Parms: SMR     MR      
 Computing Diagnostic #    402  TRAC10       Counter:       1   Parms: SMR     MR      
 Computing Diagnostic #    417  TRAC11       Counter:       1   Parms: SMR     MR      
 Computing Diagnostic #    432  TRAC12       Counter:       1   Parms: SMR     MR      
 Computing Diagnostic #    447  TRAC13       Counter:       1   Parms: SMR     MR      
 Computing Diagnostic #    462  TRAC14       Counter:       1   Parms: SMR     MR      
 Computing Diagnostic #    477  TRAC15       Counter:       1   Parms: SMR     MR      
 Computing Diagnostic #    492  TRAC16       Counter:       1   Parms: SMR     MR      
 Computing Diagnostic #    507  TRAC17       Counter:       1   Parms: SMR     MR      
 Computing Diagnostic #    522  TRAC18       Counter:       1   Parms: SMR     MR      
 Computing Diagnostic #    537  TRAC19       Counter:       1   Parms: SMR     MR      
 Computing Diagnostic #    552  TRAC20       Counter:       1   Parms: SMR     MR      
 Computing Diagnostic #    567  TRAC21       Counter:       1   Parms: SMR     MR      
 Computing Diagnostic #    582  TRAC22       Counter:       1   Parms: SMR     MR      
 Computing Diagnostic #    597  TRAC23       Counter:       1   Parms: SMR     MR      
 Computing Diagnostic #    612  TRAC24       Counter:       1   Parms: SMR     MR      
 Computing Diagnostic #    627  TRAC25       Counter:       1   Parms: SMR     MR      
 Computing Diagnostic #    642  TRAC26       Counter:       1   Parms: SMR     MR      
 Computing Diagnostic #    657  TRAC27       Counter:       1   Parms: SMR     MR      
 Computing Diagnostic #    672  TRAC28       Counter:       1   Parms: SMR     MR      
 Computing Diagnostic #    687  TRAC29       Counter:       1   Parms: SMR     MR      
 Computing Diagnostic #    702  TRAC30       Counter:       1   Parms: SMR     MR      
 Computing Diagnostic #    717  TRAC31       Counter:       1   Parms: SMR     MR      
 Computing Diagnostic #    732  TRAC32       Counter:       1   Parms: SMR     MR      
 Computing Diagnostic #    747  TRAC33       Counter:       1   Parms: SMR     MR      
 Computing Diagnostic #    762  TRAC34       Counter:       1   Parms: SMR     MR      
 Computing Diagnostic #    777  TRAC35       Counter:       1   Parms: SMR     MR      
 Computing Diagnostic #    792  TRAC36       Counter:       1   Parms: SMR     MR      
 Computing Diagnostic #   1020  PAR          Counter:       1   Parms: SMRP    MR      
 Computing Diagnostic #    810  PP           Counter:       1   Parms: SMRP    MR      
 Computing Diagnostic #    811  Nfix         Counter:       1   Parms: SMRP    MR      
 Computing Diagnostic #    812  Denit        Counter:       1   Parms: SMRP    MR      
 Computing Diagnostic #   1143  pH           Counter:       1   Parms: SMR     MR      
 Computing Diagnostic #   1144  pCO2         Counter:       1   Parms: SMRP    MR      
 Computing Diagnostic #   1108  PC0001       Counter:       1   Parms: SMRP    MR      
 Computing Diagnostic #    814  PChl0001     Counter:       1   Parms: SM P    MR      
 Computing Diagnostic #    815  VN0001       Counter:       1   Parms: SM P    MR      
 Computing Diagnostic #    816  MODE0001     Counter:       1   Parms: SM P    MR      
 Computing Diagnostic #    817  Fe_C0001     Counter:       1   Parms: SM P    MR      
 Computing Diagnostic #    818  exQc0001     Counter:       1   Parms: SM P    MR      
 Computing Diagnostic #    819  PCg0001      Counter:       1   Parms: SM P    MR      
 Computing Diagnostic #    820  CChl0001     Counter:       1   Parms: SM P    MR      
 Computing Diagnostic #    821  NChl0001     Counter:       1   Parms: SM P    MR      
 Computing Diagnostic #    822  NPho0001     Counter:       1   Parms: SM P    MR      
 Computing Diagnostic #    823  NSyn0001     Counter:       1   Parms: SM P    MR      
 Computing Diagnostic #    824  NPrn0001     Counter:       1   Parms: SM P    MR      
 Computing Diagnostic #    825  NRNA0001     Counter:       1   Parms: SM P    MR      
 Computing Diagnostic #    826  NDNA0001     Counter:       1   Parms: SM P    MR      
 Computing Diagnostic #    827  NSTO0001     Counter:       1   Parms: SM P    MR      
 Computing Diagnostic #    828  NEXC0001     Counter:       1   Parms: SM P    MR      
 Computing Diagnostic #    829  PRNA0001     Counter:       1   Parms: SM P    MR      
 Computing Diagnostic #    830  PDNA0001     Counter:       1   Parms: SM P    MR      
 Computing Diagnostic #    831  PTHY0001     Counter:       1   Parms: SM P    MR      
 Computing Diagnostic #    832  PCON0001     Counter:       1   Parms: SM P    MR      
 Computing Diagnostic #    833  PSTO0001     Counter:       1   Parms: SM P    MR      
 Computing Diagnostic #    834  PEXC0001     Counter:       1   Parms: SM P    MR      
 Computing Diagnostic #    835  FPHO0001     Counter:       1   Parms: SM P    MR      
 Computing Diagnostic #    836  FSTO0001     Counter:       1   Parms: SM P    MR      
 Computing Diagnostic #    837  FEXC0001     Counter:       1   Parms: SM P    MR      
 Computing Diagnostic #    844  CChl0002     Counter:       1   Parms: SM P    MR      
 Computing Diagnostic #    845  NChl0002     Counter:       1   Parms: SM P    MR      
 Computing Diagnostic #    846  NPho0002     Counter:       1   Parms: SM P    MR      
 Computing Diagnostic #    847  NSyn0002     Counter:       1   Parms: SM P    MR      
 Computing Diagnostic #    848  NPrn0002     Counter:       1   Parms: SM P    MR      
 Computing Diagnostic #    849  NRNA0002     Counter:       1   Parms: SM P    MR      
 Computing Diagnostic #    850  NDNA0002     Counter:       1   Parms: SM P    MR      
 Computing Diagnostic #    851  NSTO0002     Counter:       1   Parms: SM P    MR      
 Computing Diagnostic #    852  NEXC0002     Counter:       1   Parms: SM P    MR      
 Computing Diagnostic #    853  PRNA0002     Counter:       1   Parms: SM P    MR      
 Computing Diagnostic #    854  PDNA0002     Counter:       1   Parms: SM P    MR      
 Computing Diagnostic #    855  PTHY0002     Counter:       1   Parms: SM P    MR      
 Computing Diagnostic #    856  PCON0002     Counter:       1   Parms: SM P    MR      
 Computing Diagnostic #    857  PSTO0002     Counter:       1   Parms: SM P    MR      
 Computing Diagnostic #    858  PEXC0002     Counter:       1   Parms: SM P    MR      
 Computing Diagnostic #    859  FPHO0002     Counter:       1   Parms: SM P    MR      
 Computing Diagnostic #    860  FSTO0002     Counter:       1   Parms: SM P    MR      
 Computing Diagnostic #    861  FEXC0002     Counter:       1   Parms: SM P    MR      
 Computing Diagnostic #   1115  PC0002       Counter:       1   Parms: SMRP    MR      
 Computing Diagnostic #    838  PChl0002     Counter:       1   Parms: SM P    MR      
 Computing Diagnostic #    839  VN0002       Counter:       1   Parms: SM P    MR      
 Computing Diagnostic #    840  MODE0002     Counter:       1   Parms: SM P    MR      
 Computing Diagnostic #    841  Fe_C0002     Counter:       1   Parms: SM P    MR      
 Computing Diagnostic #    842  exQc0002     Counter:       1   Parms: SM P    MR      
 Computing Diagnostic #    843  PCg0002      Counter:       1   Parms: SM P    MR      
 Computing Diagnostic #   1172  GC_Tr01      Counter:       1   Parms: SMR     MR      
 Computing Diagnostic #   1173  GC_Tr02      Counter:       1   Parms: SMR     MR      
 Computing Diagnostic #   1174  GC_Tr03      Counter:       1   Parms: SMR     MR      
 Computing Diagnostic #   1175  GC_Tr04      Counter:       1   Parms: SMR     MR      
 Computing Diagnostic #   1176  GC_Tr05      Counter:       1   Parms: SMR     MR      
 Computing Diagnostic #   1177  GC_Tr06      Counter:       1   Parms: SMR     MR      
 Computing Diagnostic #   1178  GC_Tr07      Counter:       1   Parms: SMR     MR      
 Computing Diagnostic #   1179  GC_Tr08      Counter:       1   Parms: SMR     MR      
 Computing Diagnostic #   1180  GC_Tr09      Counter:       1   Parms: SMR     MR      
 Computing Diagnostic #   1181  GC_Tr10      Counter:       1   Parms: SMR     MR      
 Computing Diagnostic #   1182  GC_Tr11      Counter:       1   Parms: SMR     MR      
 Computing Diagnostic #   1183  GC_Tr12      Counter:       1   Parms: SMR     MR      
 Computing Diagnostic #   1184  GC_Tr13      Counter:       1   Parms: SMR     MR      
 Computing Diagnostic #   1185  GC_Tr14      Counter:       1   Parms: SMR     MR      
 Computing Diagnostic #   1186  GC_Tr15      Counter:       1   Parms: SMR     MR      
 Computing Diagnostic #   1187  GC_Tr16      Counter:       1   Parms: SMR     MR      
 Computing Diagnostic #   1188  GC_Tr17      Counter:       1   Parms: SMR     MR      
 Computing Diagnostic #   1189  GC_Tr18      Counter:       1   Parms: SMR     MR      
 Computing Diagnostic #   1190  GC_Tr19      Counter:       1   Parms: SMR     MR      
 Computing Diagnostic #   1191  GC_Tr20      Counter:       1   Parms: SMR     MR      
 Computing Diagnostic #   1192  GC_Tr21      Counter:       1   Parms: SMR     MR      
 Computing Diagnostic #   1193  GC_Tr22      Counter:       1   Parms: SMR     MR      
 Computing Diagnostic #   1194  GC_Tr23      Counter:       1   Parms: SMR     MR      
 Computing Diagnostic #   1195  GC_Tr24      Counter:       1   Parms: SMR     MR      
 Computing Diagnostic #   1196  GC_Tr25      Counter:       1   Parms: SMR     MR      
 Computing Diagnostic #   1197  GC_Tr26      Counter:       1   Parms: SMR     MR      
 Computing Diagnostic #   1198  GC_Tr27      Counter:       1   Parms: SMR     MR      
 Computing Diagnostic #   1199  GC_Tr28      Counter:       1   Parms: SMR     MR      
 Computing Diagnostic #   1200  GC_Tr29      Counter:       1   Parms: SMR     MR      
 Computing Diagnostic #   1201  GC_Tr30      Counter:       1   Parms: SMR     MR      
 Computing Diagnostic #   1202  GC_Tr31      Counter:       1   Parms: SMR     MR      
 Computing Diagnostic #   1203  GC_Tr32      Counter:       1   Parms: SMR     MR      
 Computing Diagnostic #   1204  GC_Tr33      Counter:       1   Parms: SMR     MR      
 Computing Diagnostic #   1205  GC_Tr34      Counter:       1   Parms: SMR     MR      
 Computing Diagnostic #   1206  GC_Tr35      Counter:       1   Parms: SMR     MR      
 Computing Diagnostic #   1207  GC_Tr36      Counter:       1   Parms: SMR     MR      
 Computing Diagnostic #    864  a001         Counter:       4   Parms: SMRP    MR      
 Computing Diagnostic #    876  a002         Counter:       4   Parms: SMRP    MR      
 Computing Diagnostic #    888  a003         Counter:       4   Parms: SMRP    MR      
 Computing Diagnostic #    900  a004         Counter:       4   Parms: SMRP    MR      
 Computing Diagnostic #    912  a005         Counter:       4   Parms: SMRP    MR      
 Computing Diagnostic #    924  a006         Counter:       4   Parms: SMRP    MR      
 Computing Diagnostic #    936  a007         Counter:       4   Parms: SMRP    MR      
 Computing Diagnostic #    948  a008         Counter:       4   Parms: SMRP    MR      
 Computing Diagnostic #    960  a009         Counter:       4   Parms: SMRP    MR      
 Computing Diagnostic #    972  a010         Counter:       4   Parms: SMRP    MR      
 Computing Diagnostic #    984  a011         Counter:       4   Parms: SMRP    MR      
 Computing Diagnostic #    996  a012         Counter:       4   Parms: SMRP    MR      
 Computing Diagnostic #   1008  a013         Counter:       4   Parms: SMRP    MR      
 Computing Diagnostic #    865  bt001        Counter:       4   Parms: SMRP    MR      
 Computing Diagnostic #    877  bt002        Counter:       4   Parms: SMRP    MR      
 Computing Diagnostic #    889  bt003        Counter:       4   Parms: SMRP    MR      
 Computing Diagnostic #    901  bt004        Counter:       4   Parms: SMRP    MR      
 Computing Diagnostic #    913  bt005        Counter:       4   Parms: SMRP    MR      
 Computing Diagnostic #    925  bt006        Counter:       4   Parms: SMRP    MR      
 Computing Diagnostic #    937  bt007        Counter:       4   Parms: SMRP    MR      
 Computing Diagnostic #    949  bt008        Counter:       4   Parms: SMRP    MR      
 Computing Diagnostic #    961  bt009        Counter:       4   Parms: SMRP    MR      
 Computing Diagnostic #    973  bt010        Counter:       4   Parms: SMRP    MR      
 Computing Diagnostic #    985  bt011        Counter:       4   Parms: SMRP    MR      
 Computing Diagnostic #    997  bt012        Counter:       4   Parms: SMRP    MR      
 Computing Diagnostic #   1009  bt013        Counter:       4   Parms: SMRP    MR      
 Computing Diagnostic #    866  bb001        Counter:       4   Parms: SMRP    MR      
 Computing Diagnostic #    878  bb002        Counter:       4   Parms: SMRP    MR      
 Computing Diagnostic #    890  bb003        Counter:       4   Parms: SMRP    MR      
 Computing Diagnostic #    902  bb004        Counter:       4   Parms: SMRP    MR      
 Computing Diagnostic #    914  bb005        Counter:       4   Parms: SMRP    MR      
 Computing Diagnostic #    938  bb007        Counter:       4   Parms: SMRP    MR      
 Computing Diagnostic #    950  bb008        Counter:       4   Parms: SMRP    MR      
 Computing Diagnostic #    962  bb009        Counter:       4   Parms: SMRP    MR      
 Computing Diagnostic #    974  bb010        Counter:       4   Parms: SMRP    MR      
 Computing Diagnostic #    986  bb011        Counter:       4   Parms: SMRP    MR      
 Computing Diagnostic #    998  bb012        Counter:       4   Parms: SMRP    MR      
 Computing Diagnostic #   1010  bb013        Counter:       4   Parms: SMRP    MR      
 Computing Diagnostic #    873  aCDOM001     Counter:       4   Parms: SMRP    MR      
 Computing Diagnostic #    885  aCDOM002     Counter:       4   Parms: SMRP    MR      
 Computing Diagnostic #    897  aCDOM003     Counter:       4   Parms: SMRP    MR      
 Computing Diagnostic #    909  aCDOM004     Counter:       4   Parms: SMRP    MR      
 Computing Diagnostic #    921  aCDOM005     Counter:       4   Parms: SMRP    MR      
 Computing Diagnostic #    933  aCDOM006     Counter:       4   Parms: SMRP    MR      
 Computing Diagnostic #    945  aCDOM007     Counter:       4   Parms: SMRP    MR      
 Computing Diagnostic #    957  aCDOM008     Counter:       4   Parms: SMRP    MR      
 Computing Diagnostic #    969  aCDOM009     Counter:       4   Parms: SMRP    MR      
 Computing Diagnostic #    981  aCDOM010     Counter:       4   Parms: SMRP    MR      
 Computing Diagnostic #    993  aCDOM011     Counter:       4   Parms: SMRP    MR      
 Computing Diagnostic #   1005  aCDOM012     Counter:       4   Parms: SMRP    MR      
 Computing Diagnostic #   1017  aCDOM013     Counter:       4   Parms: SMRP    MR      
 Computing Diagnostic #    926  bb006        Counter:       4   Parms: SMRP    MR      
 Computing Diagnostic #    189  Ed001        Counter:       4   Parms: SMRP    LR      
 Computing Diagnostic #    195  Ed002        Counter:       4   Parms: SMRP    LR      
 Computing Diagnostic #    201  Ed003        Counter:       4   Parms: SMRP    LR      
 Computing Diagnostic #    207  Ed004        Counter:       4   Parms: SMRP    LR      
 Computing Diagnostic #    213  Ed005        Counter:       4   Parms: SMRP    LR      
 Computing Diagnostic #    219  Ed006        Counter:       4   Parms: SMRP    LR      
 Computing Diagnostic #    225  Ed007        Counter:       4   Parms: SMRP    LR      
 Computing Diagnostic #    231  Ed008        Counter:       4   Parms: SMRP    LR      
 Computing Diagnostic #    237  Ed009        Counter:       4   Parms: SMRP    LR      
 Computing Diagnostic #    243  Ed010        Counter:       4   Parms: SMRP    LR      
 Computing Diagnostic #    249  Ed011        Counter:       4   Parms: SMRP    LR      
 Computing Diagnostic #    255  Ed012        Counter:       4   Parms: SMRP    LR      
 Computing Diagnostic #    261  Ed013        Counter:       4   Parms: SMRP    LR      
 Computing Diagnostic #    190  Es001        Counter:       4   Parms: SMRP    LR      
 Computing Diagnostic #    196  Es002        Counter:       4   Parms: SMRP    LR      
 Computing Diagnostic #    202  Es003        Counter:       4   Parms: SMRP    LR      
 Computing Diagnostic #    208  Es004        Counter:       4   Parms: SMRP    LR      
 Computing Diagnostic #    214  Es005        Counter:       4   Parms: SMRP    LR      
 Computing Diagnostic #    220  Es006        Counter:       4   Parms: SMRP    LR      
 Computing Diagnostic #    226  Es007        Counter:       4   Parms: SMRP    LR      
 Computing Diagnostic #    232  Es008        Counter:       4   Parms: SMRP    LR      
 Computing Diagnostic #    238  Es009        Counter:       4   Parms: SMRP    LR      
 Computing Diagnostic #    244  Es010        Counter:       4   Parms: SMRP    LR      
 Computing Diagnostic #    250  Es011        Counter:       4   Parms: SMRP    LR      
 Computing Diagnostic #    256  Es012        Counter:       4   Parms: SMRP    LR      
 Computing Diagnostic #    262  Es013        Counter:       4   Parms: SMRP    LR      
 Computing Diagnostic #    191  Eu001        Counter:       4   Parms: SMRP    LR      
 Computing Diagnostic #    197  Eu002        Counter:       4   Parms: SMRP    LR      
 Computing Diagnostic #    203  Eu003        Counter:       4   Parms: SMRP    LR      
 Computing Diagnostic #    209  Eu004        Counter:       4   Parms: SMRP    LR      
 Computing Diagnostic #    215  Eu005        Counter:       4   Parms: SMRP    LR      
 Computing Diagnostic #    221  Eu006        Counter:       4   Parms: SMRP    LR      
 Computing Diagnostic #    227  Eu007        Counter:       4   Parms: SMRP    LR      
 Computing Diagnostic #    233  Eu008        Counter:       4   Parms: SMRP    LR      
 Computing Diagnostic #    239  Eu009        Counter:       4   Parms: SMRP    LR      
 Computing Diagnostic #    245  Eu010        Counter:       4   Parms: SMRP    LR      
 Computing Diagnostic #    251  Eu011        Counter:       4   Parms: SMRP    LR      
 Computing Diagnostic #    257  Eu012        Counter:       4   Parms: SMRP    LR      
 Computing Diagnostic #    263  Eu013        Counter:       4   Parms: SMRP    LR      
 Computing Diagnostic #    862  PAR001       Counter:       4   Parms: SMRP    MR      
 Computing Diagnostic #    874  PAR002       Counter:       4   Parms: SMRP    MR      
 Computing Diagnostic #    886  PAR003       Counter:       4   Parms: SMRP    MR      
 Computing Diagnostic #    898  PAR004       Counter:       4   Parms: SMRP    MR      
 Computing Diagnostic #    910  PAR005       Counter:       4   Parms: SMRP    MR      
 Computing Diagnostic #    922  PAR006       Counter:       4   Parms: SMRP    MR      
 Computing Diagnostic #    934  PAR007       Counter:       4   Parms: SMRP    MR      
 Computing Diagnostic #    946  PAR008       Counter:       4   Parms: SMRP    MR      
 Computing Diagnostic #    958  PAR009       Counter:       4   Parms: SMRP    MR      
 Computing Diagnostic #    970  PAR010       Counter:       4   Parms: SMRP    MR      
 Computing Diagnostic #    982  PAR011       Counter:       4   Parms: SMRP    MR      
 Computing Diagnostic #    994  PAR012       Counter:       4   Parms: SMRP    MR      
 Computing Diagnostic #   1006  PAR013       Counter:       4   Parms: SMRP    MR      
 Computing Diagnostic #   1150  fluxCO2      Counter:       4   Parms: SM      L1      
 Computing Diagnostic #   1154  gDICsurf     Counter:       4   Parms: SM      L1      
 Computing Diagnostic #   1155  gALKsurf     Counter:       4   Parms: SM      L1      
 Computing Diagnostic #   1156  gO2surf      Counter:       4   Parms: SM      L1      
 Compute Stats, Diag. #    810  PP        vol(   0 ): 1.326E+18  Parms: SMRP    MR      
 Compute Stats, Diag. #    811  Nfix      vol(   0 ): 1.326E+18  Parms: SMRP    MR      
 Compute Stats, Diag. #    812  Denit     vol(   0 ): 1.326E+18  Parms: SMRP    MR      
(PID.TID 0000.0001) DIAGSTATS_CLOSE_IO: close file: statsPP.0000000000.txt , unit=     9
(PID.TID 0000.0001) DIAGSTATS_CLOSE_IO: close file: statsNfix.0000000000.txt , unit=    10
(PID.TID 0000.0001) DIAGSTATS_CLOSE_IO: close file: statsDenit.0000000000.txt , unit=    16
(PID.TID 0000.0001) %CHECKPOINT         4 ckptA
(PID.TID 0000.0001)   Seconds in section "ALL                    [THE_MODEL_MAIN]":
(PID.TID 0000.0001)           User time:   34.9905073642731
(PID.TID 0000.0001)         System time:  0.000000000000000E+000
(PID.TID 0000.0001)     Wall clock time:   43.0355861186981
(PID.TID 0000.0001)          No. starts:           1
(PID.TID 0000.0001)           No. stops:           1
(PID.TID 0000.0001)   Seconds in section "INITIALISE_FIXED       [THE_MODEL_MAIN]":
(PID.TID 0000.0001)           User time:   6.56949895620346
(PID.TID 0000.0001)         System time:  0.000000000000000E+000
(PID.TID 0000.0001)     Wall clock time:   7.96265602111816
(PID.TID 0000.0001)          No. starts:           1
(PID.TID 0000.0001)           No. stops:           1
(PID.TID 0000.0001)   Seconds in section "THE_MAIN_LOOP          [THE_MODEL_MAIN]":
(PID.TID 0000.0001)           User time:   28.4188170433044
(PID.TID 0000.0001)         System time:  0.000000000000000E+000
(PID.TID 0000.0001)     Wall clock time:   34.9819989204407
(PID.TID 0000.0001)          No. starts:           1
(PID.TID 0000.0001)           No. stops:           1
(PID.TID 0000.0001)   Seconds in section "INITIALISE_VARIA    [THE_MAIN_LOOP]":
(PID.TID 0000.0001)           User time:   5.40936040878296
(PID.TID 0000.0001)         System time:  0.000000000000000E+000
(PID.TID 0000.0001)     Wall clock time:   7.62806010246277
(PID.TID 0000.0001)          No. starts:           1
(PID.TID 0000.0001)           No. stops:           1
(PID.TID 0000.0001)   Seconds in section "MAIN LOOP           [THE_MAIN_LOOP]":
(PID.TID 0000.0001)           User time:   23.0094385147095
(PID.TID 0000.0001)         System time:  0.000000000000000E+000
(PID.TID 0000.0001)     Wall clock time:   27.3539190292358
(PID.TID 0000.0001)          No. starts:           1
(PID.TID 0000.0001)           No. stops:           1
(PID.TID 0000.0001)   Seconds in section "MAIN_DO_LOOP        [THE_MAIN_LOOP]":
(PID.TID 0000.0001)           User time:   23.0094060897827
(PID.TID 0000.0001)         System time:  0.000000000000000E+000
(PID.TID 0000.0001)     Wall clock time:   27.3538818359375
(PID.TID 0000.0001)          No. starts:           4
(PID.TID 0000.0001)           No. stops:           4
(PID.TID 0000.0001)   Seconds in section "FORWARD_STEP        [MAIN_DO_LOOP]":
(PID.TID 0000.0001)           User time:   23.0092325210571
(PID.TID 0000.0001)         System time:  0.000000000000000E+000
(PID.TID 0000.0001)     Wall clock time:   27.3538150787354
(PID.TID 0000.0001)          No. starts:           4
(PID.TID 0000.0001)           No. stops:           4
(PID.TID 0000.0001)   Seconds in section "DO_STATEVARS_DIAGS  [FORWARD_STEP]":
(PID.TID 0000.0001)           User time:  3.100967407226562E-002
(PID.TID 0000.0001)         System time:  0.000000000000000E+000
(PID.TID 0000.0001)     Wall clock time:  3.117346763610840E-002
(PID.TID 0000.0001)          No. starts:           8
(PID.TID 0000.0001)           No. stops:           8
(PID.TID 0000.0001)   Seconds in section "LOAD_FIELDS_DRIVER  [FORWARD_STEP]":
(PID.TID 0000.0001)           User time:   1.91485881805420
(PID.TID 0000.0001)         System time:  0.000000000000000E+000
(PID.TID 0000.0001)     Wall clock time:   1.92577099800110
(PID.TID 0000.0001)          No. starts:           4
(PID.TID 0000.0001)           No. stops:           4
(PID.TID 0000.0001)   Seconds in section "EXF_GETFORCING     [LOAD_FLDS_DRIVER]":
(PID.TID 0000.0001)           User time:   1.75095653533936
(PID.TID 0000.0001)         System time:  0.000000000000000E+000
(PID.TID 0000.0001)     Wall clock time:   1.75090932846069
(PID.TID 0000.0001)          No. starts:           4
(PID.TID 0000.0001)           No. stops:           4
(PID.TID 0000.0001)   Seconds in section "EXTERNAL_FLDS_LOAD [LOAD_FLDS_DRIVER]":
(PID.TID 0000.0001)           User time:  1.637458801269531E-003
(PID.TID 0000.0001)         System time:  0.000000000000000E+000
(PID.TID 0000.0001)     Wall clock time:  1.813650131225586E-003
(PID.TID 0000.0001)          No. starts:           4
(PID.TID 0000.0001)           No. stops:           4
(PID.TID 0000.0001)   Seconds in section "DO_ATMOSPHERIC_PHYS [FORWARD_STEP]":
(PID.TID 0000.0001)           User time:  8.583068847656250E-006
(PID.TID 0000.0001)         System time:  0.000000000000000E+000
(PID.TID 0000.0001)     Wall clock time:  2.479553222656250E-005
(PID.TID 0000.0001)          No. starts:           4
(PID.TID 0000.0001)           No. stops:           4
(PID.TID 0000.0001)   Seconds in section "DO_OCEANIC_PHYS     [FORWARD_STEP]":
(PID.TID 0000.0001)           User time:  1.162433624267578E-002
(PID.TID 0000.0001)         System time:  0.000000000000000E+000
(PID.TID 0000.0001)     Wall clock time:  1.344108581542969E-002
(PID.TID 0000.0001)          No. starts:           4
(PID.TID 0000.0001)           No. stops:           4
(PID.TID 0000.0001)   Seconds in section "THERMODYNAMICS      [FORWARD_STEP]":
(PID.TID 0000.0001)           User time:   2.48663425445557
(PID.TID 0000.0001)         System time:  0.000000000000000E+000
(PID.TID 0000.0001)     Wall clock time:   2.48829913139343
(PID.TID 0000.0001)          No. starts:           4
(PID.TID 0000.0001)           No. stops:           4
(PID.TID 0000.0001)   Seconds in section "OFFLINE_FLDS_LOAD   [FORWARD_STEP]":
(PID.TID 0000.0001)           User time:  5.481719970703125E-003
(PID.TID 0000.0001)         System time:  0.000000000000000E+000
(PID.TID 0000.0001)     Wall clock time:  5.529880523681641E-003
(PID.TID 0000.0001)          No. starts:           4
(PID.TID 0000.0001)           No. stops:           4
(PID.TID 0000.0001)   Seconds in section "TRC_CORRECTION_STEP [FORWARD_STEP]":
(PID.TID 0000.0001)           User time:  8.583068847656250E-006
(PID.TID 0000.0001)         System time:  0.000000000000000E+000
(PID.TID 0000.0001)     Wall clock time:  2.598762512207031E-005
(PID.TID 0000.0001)          No. starts:           4
(PID.TID 0000.0001)           No. stops:           4
(PID.TID 0000.0001)   Seconds in section "GCHEM_FORCING_SEP  [FORWARD_STEP]":
(PID.TID 0000.0001)           User time:  0.948266029357910
(PID.TID 0000.0001)         System time:  0.000000000000000E+000
(PID.TID 0000.0001)     Wall clock time:   1.01092100143433
(PID.TID 0000.0001)          No. starts:           4
(PID.TID 0000.0001)           No. stops:           4
(PID.TID 0000.0001)   Seconds in section "DARWIN_FORCING [GCHEM_FORCING_SEP]":
(PID.TID 0000.0001)           User time:  0.531446456909180
(PID.TID 0000.0001)         System time:  0.000000000000000E+000
(PID.TID 0000.0001)     Wall clock time:  0.593005180358887
(PID.TID 0000.0001)          No. starts:           4
(PID.TID 0000.0001)           No. stops:           4
(PID.TID 0000.0001)   Seconds in section "DARWIN_LIGHT [DARWIN_FORCING]":
(PID.TID 0000.0001)           User time:  0.261388778686523
(PID.TID 0000.0001)         System time:  0.000000000000000E+000
(PID.TID 0000.0001)     Wall clock time:  0.295660972595215
(PID.TID 0000.0001)          No. starts:           4
(PID.TID 0000.0001)           No. stops:           4
(PID.TID 0000.0001)   Seconds in section "DARWIN_SURFFORCING [DARWIN_FORCING]":
(PID.TID 0000.0001)           User time:  1.879787445068359E-002
(PID.TID 0000.0001)         System time:  0.000000000000000E+000
(PID.TID 0000.0001)     Wall clock time:  1.885914802551270E-002
(PID.TID 0000.0001)          No. starts:           4
(PID.TID 0000.0001)           No. stops:           4
(PID.TID 0000.0001)   Seconds in section "DARWIN_FE_CHEM [DARWIN_FORCING]":
(PID.TID 0000.0001)           User time:  3.688812255859375E-003
(PID.TID 0000.0001)         System time:  0.000000000000000E+000
(PID.TID 0000.0001)     Wall clock time:  3.366947174072266E-003
(PID.TID 0000.0001)          No. starts:           8
(PID.TID 0000.0001)           No. stops:           8
(PID.TID 0000.0001)   Seconds in section "DARWIN_FE_SCAV [DARWIN_FORCING]":
(PID.TID 0000.0001)           User time:  2.385139465332031E-003
(PID.TID 0000.0001)         System time:  0.000000000000000E+000
(PID.TID 0000.0001)     Wall clock time:  2.430915832519531E-003
(PID.TID 0000.0001)          No. starts:           4
(PID.TID 0000.0001)           No. stops:           4
(PID.TID 0000.0001)   Seconds in section "DARWIN_FE_DUST [DARWIN_FORCING]":
(PID.TID 0000.0001)           User time:  1.907348632812500E-005
(PID.TID 0000.0001)         System time:  0.000000000000000E+000
(PID.TID 0000.0001)     Wall clock time:  5.412101745605469E-005
(PID.TID 0000.0001)          No. starts:           4
(PID.TID 0000.0001)           No. stops:           4
(PID.TID 0000.0001)   Seconds in section "DARWIN_FE_SED [DARWIN_FORCING]":
(PID.TID 0000.0001)           User time:  6.408691406250000E-004
(PID.TID 0000.0001)         System time:  0.000000000000000E+000
(PID.TID 0000.0001)     Wall clock time:  7.145404815673828E-004
(PID.TID 0000.0001)          No. starts:           4
(PID.TID 0000.0001)           No. stops:           4
(PID.TID 0000.0001)   Seconds in section "DARWIN_PLANKTON [DARWIN_FORCING]":
(PID.TID 0000.0001)           User time:  0.105565071105957
(PID.TID 0000.0001)         System time:  0.000000000000000E+000
(PID.TID 0000.0001)     Wall clock time:  0.105423212051392
(PID.TID 0000.0001)          No. starts:           4
(PID.TID 0000.0001)           No. stops:           4
(PID.TID 0000.0001)   Seconds in section "DIAGS_FILL [DARWIN_FORCING]":
(PID.TID 0000.0001)           User time:  5.634307861328125E-002
(PID.TID 0000.0001)         System time:  0.000000000000000E+000
(PID.TID 0000.0001)     Wall clock time:  5.663275718688965E-002
(PID.TID 0000.0001)          No. starts:           8
(PID.TID 0000.0001)           No. stops:           8
(PID.TID 0000.0001)   Seconds in section "DARWIN_SINKING [DARWIN_FORCING]":
(PID.TID 0000.0001)           User time:  1.866626739501953E-002
(PID.TID 0000.0001)         System time:  0.000000000000000E+000
(PID.TID 0000.0001)     Wall clock time:  1.830506324768066E-002
(PID.TID 0000.0001)          No. starts:           4
(PID.TID 0000.0001)           No. stops:           4
(PID.TID 0000.0001)   Seconds in section "DARWIN_STEP [DARWIN_FORCING]":
(PID.TID 0000.0001)           User time:  1.833057403564453E-002
(PID.TID 0000.0001)         System time:  0.000000000000000E+000
(PID.TID 0000.0001)     Wall clock time:  1.844096183776855E-002
(PID.TID 0000.0001)          No. starts:           4
(PID.TID 0000.0001)           No. stops:           4
(PID.TID 0000.0001)   Seconds in section "BLOCKING_EXCHANGES  [FORWARD_STEP]":
(PID.TID 0000.0001)           User time:  8.954048156738281E-002
(PID.TID 0000.0001)         System time:  0.000000000000000E+000
(PID.TID 0000.0001)     Wall clock time:  8.956193923950195E-002
(PID.TID 0000.0001)          No. starts:           4
(PID.TID 0000.0001)           No. stops:           4
(PID.TID 0000.0001)   Seconds in section "DO_STATEVARS_TAVE   [FORWARD_STEP]":
(PID.TID 0000.0001)           User time:  0.000000000000000E+000
(PID.TID 0000.0001)         System time:  0.000000000000000E+000
(PID.TID 0000.0001)     Wall clock time:  2.312660217285156E-005
(PID.TID 0000.0001)          No. starts:           4
(PID.TID 0000.0001)           No. stops:           4
(PID.TID 0000.0001)   Seconds in section "MONITOR             [FORWARD_STEP]":
(PID.TID 0000.0001)           User time:  4.026794433593750E-002
(PID.TID 0000.0001)         System time:  0.000000000000000E+000
(PID.TID 0000.0001)     Wall clock time:  4.012513160705566E-002
(PID.TID 0000.0001)          No. starts:           4
(PID.TID 0000.0001)           No. stops:           4
(PID.TID 0000.0001)   Seconds in section "DO_THE_MODEL_IO     [FORWARD_STEP]":
(PID.TID 0000.0001)           User time:   14.7657899856567
(PID.TID 0000.0001)         System time:  0.000000000000000E+000
(PID.TID 0000.0001)     Wall clock time:   17.1861829757690
(PID.TID 0000.0001)          No. starts:           4
(PID.TID 0000.0001)           No. stops:           4
(PID.TID 0000.0001)   Seconds in section "PTRACERS_RESET      [FORWARD_STEP]":
(PID.TID 0000.0001)           User time:  2.765655517578125E-005
(PID.TID 0000.0001)         System time:  0.000000000000000E+000
(PID.TID 0000.0001)     Wall clock time:  3.170967102050781E-005
(PID.TID 0000.0001)          No. starts:           4
(PID.TID 0000.0001)           No. stops:           4
(PID.TID 0000.0001)   Seconds in section "DO_WRITE_PICKUP     [FORWARD_STEP]":
(PID.TID 0000.0001)           User time:   2.68363952636719
(PID.TID 0000.0001)         System time:  0.000000000000000E+000
(PID.TID 0000.0001)     Wall clock time:   4.52834033966064
(PID.TID 0000.0001)          No. starts:           4
(PID.TID 0000.0001)           No. stops:           4
(PID.TID 0000.0001) // ======================================================
(PID.TID 0000.0001) // Tile <-> Tile communication statistics
(PID.TID 0000.0001) // ======================================================
(PID.TID 0000.0001) // o Tile number: 000001
(PID.TID 0000.0001) //         No. X exchanges =              0
(PID.TID 0000.0001) //            Max. X spins =              0
(PID.TID 0000.0001) //            Min. X spins =     1000000000
(PID.TID 0000.0001) //          Total. X spins =              0
(PID.TID 0000.0001) //            Avg. X spins =       0.00E+00
(PID.TID 0000.0001) //         No. Y exchanges =              0
(PID.TID 0000.0001) //            Max. Y spins =              0
(PID.TID 0000.0001) //            Min. Y spins =     1000000000
(PID.TID 0000.0001) //          Total. Y spins =              0
(PID.TID 0000.0001) //            Avg. Y spins =       0.00E+00
(PID.TID 0000.0001) // o Thread number: 000001
(PID.TID 0000.0001) //            No. barriers =          14968
(PID.TID 0000.0001) //      Max. barrier spins =              1
(PID.TID 0000.0001) //      Min. barrier spins =              1
(PID.TID 0000.0001) //     Total barrier spins =          14968
(PID.TID 0000.0001) //      Avg. barrier spins =       1.00E+00
PROGRAM MAIN: Execution ended Normally
