(PID.TID 0000.0001) 
(PID.TID 0000.0001) // ======================================================
(PID.TID 0000.0001) //                      MITgcm UV
(PID.TID 0000.0001) //                      =========
(PID.TID 0000.0001) // ======================================================
(PID.TID 0000.0001) // execution environment starting up...
(PID.TID 0000.0001) 
(PID.TID 0000.0001) // MITgcmUV version:  checkpoint67k
(PID.TID 0000.0001) // Build user:        jahn
(PID.TID 0000.0001) // Build host:        node623
(PID.TID 0000.0001) // Build date:        Thu Mar 30 09:37:47 EDT 2023
(PID.TID 0000.0001) 
(PID.TID 0000.0001) // =======================================================
(PID.TID 0000.0001) // Execution Environment parameter file "eedata"
(PID.TID 0000.0001) // =======================================================
(PID.TID 0000.0001) ># Example "eedata" file
(PID.TID 0000.0001) ># Lines beginning "#" are comments
(PID.TID 0000.0001) ># nTx - No. threads per process in X
(PID.TID 0000.0001) ># nTy - No. threads per process in Y
(PID.TID 0000.0001) > &EEPARMS
(PID.TID 0000.0001) > nTx=1,nTy=1
(PID.TID 0000.0001) > /
(PID.TID 0000.0001) ># Note: Some systems use & as the
(PID.TID 0000.0001) ># namelist terminator. Other systems
(PID.TID 0000.0001) ># use a / character (as shown here).
(PID.TID 0000.0001) 
(PID.TID 0000.0001) // =======================================================
(PID.TID 0000.0001) // Computational Grid Specification ( see files "SIZE.h" )
(PID.TID 0000.0001) //                                  ( and "eedata"       )
(PID.TID 0000.0001) // =======================================================
(PID.TID 0000.0001)      nPx =   18 ; /* No. processes in X */
(PID.TID 0000.0001)      nPy =    8 ; /* No. processes in Y */
(PID.TID 0000.0001)      nSx =    1 ; /* No. tiles in X per process */
(PID.TID 0000.0001)      nSy =    1 ; /* No. tiles in Y per process */
(PID.TID 0000.0001)      sNx =   20 ; /* Tile size in X */
(PID.TID 0000.0001)      sNy =   20 ; /* Tile size in Y */
(PID.TID 0000.0001)      OLx =    4 ; /* Tile overlap distance in X */
(PID.TID 0000.0001)      OLy =    4 ; /* Tile overlap distance in Y */
(PID.TID 0000.0001)      nTx =    1 ; /* No. threads in X per process */
(PID.TID 0000.0001)      nTy =    1 ; /* No. threads in Y per process */
(PID.TID 0000.0001)       Nr =   23 ; /* No. levels in the vertical   */
(PID.TID 0000.0001)       Nx =  360 ; /* Total domain size in X ( = nPx*nSx*sNx ) */
(PID.TID 0000.0001)       Ny =  160 ; /* Total domain size in Y ( = nPy*nSy*sNy ) */
(PID.TID 0000.0001)   nTiles =    1 ; /* Total no. tiles per process ( = nSx*nSy ) */
(PID.TID 0000.0001)   nProcs =  144 ; /* Total no. processes ( = nPx*nPy ) */
(PID.TID 0000.0001) nThreads =    1 ; /* Total no. threads per process ( = nTx*nTy ) */
(PID.TID 0000.0001) usingMPI =    T ; /* Flag used to control whether MPI is in use */
(PID.TID 0000.0001)                   /*  note: To execute a program with MPI calls */
(PID.TID 0000.0001)                   /*  it must be launched appropriately e.g     */
(PID.TID 0000.0001)                   /*  "mpirun -np 64 ......"                    */
(PID.TID 0000.0001) useCoupler=    F ;/* Flag used to control communications with   */
(PID.TID 0000.0001)                   /*  other model components, through a coupler */
(PID.TID 0000.0001) useNest2W_parent =    F ;/* Control 2-W Nesting comm */
(PID.TID 0000.0001) useNest2W_child  =    F ;/* Control 2-W Nesting comm */
(PID.TID 0000.0001) debugMode =    F ; /* print debug msg. (sequence of S/R calls)  */
(PID.TID 0000.0001) printMapIncludesZeros=    F ; /* print zeros in Std.Output maps */
(PID.TID 0000.0001) maxLengthPrt1D=   65 /* maxLength of 1D array printed to StdOut */
(PID.TID 0000.0001) 
(PID.TID 0000.0001) ======= Starting MPI parallel Run =========
(PID.TID 0000.0001)  My Processor Name (len:  7 ) = node623
(PID.TID 0000.0001)  Located at (  0,  0) on processor grid (0: 17,0:  7)
(PID.TID 0000.0001)  Origin at  (     1,     1) on global grid (1:   360,1:   160)
(PID.TID 0000.0001)  North neighbor = processor 0001
(PID.TID 0000.0001)  South neighbor = processor 0007
(PID.TID 0000.0001)   East neighbor = processor 0008
(PID.TID 0000.0001)   West neighbor = processor 0136
(PID.TID 0000.0001) // ======================================================
(PID.TID 0000.0001) // Mapping of tiles to threads
(PID.TID 0000.0001) // ======================================================
(PID.TID 0000.0001) // -o- Thread   1, tiles (   1:   1,   1:   1)
(PID.TID 0000.0001) 
(PID.TID 0000.0001) // ======================================================
(PID.TID 0000.0001) // Tile <-> Tile connectvity table
(PID.TID 0000.0001) // ======================================================
(PID.TID 0000.0001) // Tile number: 000001 (process no. = 000000)
(PID.TID 0000.0001) //        WEST: Tile = 000018, Process = 000136, Comm = messages
(PID.TID 0000.0001) //                bi = 000001, bj = 000001
(PID.TID 0000.0001) //        EAST: Tile = 000002, Process = 000008, Comm = messages
(PID.TID 0000.0001) //                bi = 000001, bj = 000001
(PID.TID 0000.0001) //       SOUTH: Tile = 000127, Process = 000007, Comm = messages
(PID.TID 0000.0001) //                bi = 000001, bj = 000001
(PID.TID 0000.0001) //       NORTH: Tile = 000019, Process = 000001, Comm = messages
(PID.TID 0000.0001) //                bi = 000001, bj = 000001
(PID.TID 0000.0001) 
(PID.TID 0000.0001)  INI_PARMS: opening model parameter file "data"
(PID.TID 0000.0001)  OPEN_COPY_DATA_FILE: opening file data
(PID.TID 0000.0001) // =======================================================
(PID.TID 0000.0001) // Removing comments from "data"
(PID.TID 0000.0001) // =======================================================
(PID.TID 0000.0001)    1 &PARM01
(PID.TID 0000.0001)    2 tRef= 24.0 , 23.0 , 22.0 , 21.0 , 20.0 ,
(PID.TID 0000.0001)    3       19.0 , 18.0 , 17.0 , 16.0 , 15.0 ,
(PID.TID 0000.0001)    4       14.0 , 13.0 , 12.0 , 11.0 , 10.0 ,
(PID.TID 0000.0001)    5        9.0 ,  8.0 ,  7.0 ,  6.0,   5.0 ,
(PID.TID 0000.0001)    6        4.0 ,  3.0 ,  2.0 ,
(PID.TID 0000.0001)    7 sRef= 34.65, 34.75, 34.82, 34.87, 34.90,
(PID.TID 0000.0001)    8       34.90, 34.86, 34.78, 34.69, 34.60,
(PID.TID 0000.0001)    9       34.58, 34.62, 34.68, 34.72, 34.73,
(PID.TID 0000.0001)   10       34.74, 34.73, 34.73, 34.72, 34.72,
(PID.TID 0000.0001)   11       34.71, 34.70, 34.69,
(PID.TID 0000.0001)   12 no_slip_sides=.false.,
(PID.TID 0000.0001)   13 no_slip_bottom=.TRUE.,
(PID.TID 0000.0001)   14 viscAz=1.E-3,
(PID.TID 0000.0001)   15 viscAh=1.E4,
(PID.TID 0000.0001)   16 diffKhT=1.E2,
(PID.TID 0000.0001)   17 diffKzT=1.E-5,
(PID.TID 0000.0001)   18 diffKhS=1.E2,
(PID.TID 0000.0001)   19 diffKzS=1.E-5,
(PID.TID 0000.0001)   20 beta=1.E-11,
(PID.TID 0000.0001)   21 tAlpha=2.E-4,
(PID.TID 0000.0001)   22 sBeta =7.4E-4,
(PID.TID 0000.0001)   23 gravity=9.81,
(PID.TID 0000.0001)   24 gBaro=9.81,
(PID.TID 0000.0001)   25 rigidLid=.FALSE.,
(PID.TID 0000.0001)   26 implicitFreeSurface=.true.,
(PID.TID 0000.0001)   27 eosType='POLY3',
(PID.TID 0000.0001)   28 saltStepping=.TRUE.,
(PID.TID 0000.0001)   29 tempStepping=.TRUE.,
(PID.TID 0000.0001)   30 momStepping=.TRUE.,
(PID.TID 0000.0001)   31 implicitDiffusion=.true.,
(PID.TID 0000.0001)   32 implicitViscosity=.true.,
(PID.TID 0000.0001)   33 allowFreezing=.false.,
(PID.TID 0000.0001)   34 useSingleCpuIO=.TRUE.,
(PID.TID 0000.0001)   35 useCDscheme=.FALSE.,
(PID.TID 0000.0001)   36 tempAdvScheme = 3,
(PID.TID 0000.0001)   37 saltAdvScheme = 3,
(PID.TID 0000.0001)   38 readBinaryPrec= 32,
(PID.TID 0000.0001)   39 writeBinaryPrec= 32,
(PID.TID 0000.0001)   40 /
(PID.TID 0000.0001)   41
(PID.TID 0000.0001)   42 &PARM02
(PID.TID 0000.0001)   43 cg2dMaxIters=300,
(PID.TID 0000.0001)   44 cg2dTargetResidual=1.E-7,
(PID.TID 0000.0001)   45 /
(PID.TID 0000.0001)   46
(PID.TID 0000.0001)   47 &PARM03
(PID.TID 0000.0001)   48  nIter0=0,
(PID.TID 0000.0001)   49  pickupSuff='0000025920',
(PID.TID 0000.0001)   50  nTimeSteps=4,
(PID.TID 0000.0001)   51  deltaTmom=3600.,
(PID.TID 0000.0001)   52  deltaTtracer=3600.,
(PID.TID 0000.0001)   53  deltaTClock =3600.,
(PID.TID 0000.0001)   54  abEps=0.1,
(PID.TID 0000.0001)   55  pChkptFreq  = 31104000.,
(PID.TID 0000.0001)   56  chkptFreq   = 31104000.,
(PID.TID 0000.0001)   57  dumpInitAndLast=.FALSE.,
(PID.TID 0000.0001)   58  monitorFreq = 1.,
(PID.TID 0000.0001)   59  tauThetaClimRelax=0.,
(PID.TID 0000.0001)   60  tauSaltClimRelax=0.,
(PID.TID 0000.0001)   61  periodicExternalForcing=.TRUE.,
(PID.TID 0000.0001)   62  externForcingPeriod=2592000.,
(PID.TID 0000.0001)   63  externForcingCycle=31104000.,
(PID.TID 0000.0001)   64 /
(PID.TID 0000.0001)   65
(PID.TID 0000.0001)   66 &PARM04
(PID.TID 0000.0001)   67 usingCartesianGrid=.FALSE.,
(PID.TID 0000.0001)   68 usingSphericalPolarGrid=.TRUE.,
(PID.TID 0000.0001)   69 delX=360*1.E0,
(PID.TID 0000.0001)   70 delY=160*1.E0,
(PID.TID 0000.0001)   71 delZ=10.,10.,15.,20.,20.,25.,35.,50.,75.,
(PID.TID 0000.0001)   72 100.,150.,200.,275.,350.,415.,450.,500.,
(PID.TID 0000.0001)   73 500.,500.,500.,500.,500.,500.,
(PID.TID 0000.0001)   74 xgOrigin=0,
(PID.TID 0000.0001)   75 ygOrigin=-80.,
(PID.TID 0000.0001)   76 /
(PID.TID 0000.0001)   77
(PID.TID 0000.0001)   78 &PARM05
(PID.TID 0000.0001)   79 bathyFile=       'input_ecco/bathy_fl.bin',
(PID.TID 0000.0001)   80 zonalWindFile=   '',
(PID.TID 0000.0001)   81 meridWindFile=   '',
(PID.TID 0000.0001)   82 thetaClimFile=   '',
(PID.TID 0000.0001)   83 saltClimFile=    '',
(PID.TID 0000.0001)   84 surfQFile=       '',
(PID.TID 0000.0001)   85 EmPmRFile=       '',
(PID.TID 0000.0001)   86 /
(PID.TID 0000.0001) // =======================================================
(PID.TID 0000.0001) // Parameter file "data"
(PID.TID 0000.0001) // =======================================================
(PID.TID 0000.0001) >#
(PID.TID 0000.0001) ># ******************************
(PID.TID 0000.0001) ># Model parameters
(PID.TID 0000.0001) ># Continuous equation parameters
(PID.TID 0000.0001) ># ******************************
(PID.TID 0000.0001) >&PARM01
(PID.TID 0000.0001) >tRef= 24.0 , 23.0 , 22.0 , 21.0 , 20.0 ,
(PID.TID 0000.0001) >      19.0 , 18.0 , 17.0 , 16.0 , 15.0 ,
(PID.TID 0000.0001) >      14.0 , 13.0 , 12.0 , 11.0 , 10.0 ,
(PID.TID 0000.0001) >       9.0 ,  8.0 ,  7.0 ,  6.0,   5.0 ,
(PID.TID 0000.0001) >       4.0 ,  3.0 ,  2.0 ,
(PID.TID 0000.0001) >sRef= 34.65, 34.75, 34.82, 34.87, 34.90,
(PID.TID 0000.0001) >      34.90, 34.86, 34.78, 34.69, 34.60,
(PID.TID 0000.0001) >      34.58, 34.62, 34.68, 34.72, 34.73,
(PID.TID 0000.0001) >      34.74, 34.73, 34.73, 34.72, 34.72,
(PID.TID 0000.0001) >      34.71, 34.70, 34.69,
(PID.TID 0000.0001) >no_slip_sides=.false.,
(PID.TID 0000.0001) >no_slip_bottom=.TRUE.,
(PID.TID 0000.0001) >viscAz=1.E-3,
(PID.TID 0000.0001) >viscAh=1.E4,
(PID.TID 0000.0001) >diffKhT=1.E2,
(PID.TID 0000.0001) >diffKzT=1.E-5,
(PID.TID 0000.0001) >diffKhS=1.E2,
(PID.TID 0000.0001) >diffKzS=1.E-5,
(PID.TID 0000.0001) >beta=1.E-11,
(PID.TID 0000.0001) >tAlpha=2.E-4,
(PID.TID 0000.0001) >sBeta =7.4E-4,
(PID.TID 0000.0001) >gravity=9.81,
(PID.TID 0000.0001) >gBaro=9.81,
(PID.TID 0000.0001) >rigidLid=.FALSE.,
(PID.TID 0000.0001) >implicitFreeSurface=.true.,
(PID.TID 0000.0001) >eosType='POLY3',
(PID.TID 0000.0001) >saltStepping=.TRUE.,
(PID.TID 0000.0001) >tempStepping=.TRUE.,
(PID.TID 0000.0001) >momStepping=.TRUE.,
(PID.TID 0000.0001) >implicitDiffusion=.true.,
(PID.TID 0000.0001) >implicitViscosity=.true.,
(PID.TID 0000.0001) >allowFreezing=.false.,
(PID.TID 0000.0001) >useSingleCpuIO=.TRUE.,
(PID.TID 0000.0001) >useCDscheme=.FALSE.,
(PID.TID 0000.0001) >tempAdvScheme = 3,
(PID.TID 0000.0001) >saltAdvScheme = 3,
(PID.TID 0000.0001) >readBinaryPrec= 32,
(PID.TID 0000.0001) >writeBinaryPrec= 32,
(PID.TID 0000.0001) >/
(PID.TID 0000.0001) >
(PID.TID 0000.0001) ># **************************
(PID.TID 0000.0001) ># Elliptic solver parameters
(PID.TID 0000.0001) ># **************************
(PID.TID 0000.0001) >&PARM02
(PID.TID 0000.0001) >cg2dMaxIters=300,
(PID.TID 0000.0001) >cg2dTargetResidual=1.E-7,
(PID.TID 0000.0001) >/
(PID.TID 0000.0001) >
(PID.TID 0000.0001) ># ************************
(PID.TID 0000.0001) ># Time stepping parameters
(PID.TID 0000.0001) ># ************************
(PID.TID 0000.0001) >&PARM03
(PID.TID 0000.0001) > nIter0=0,
(PID.TID 0000.0001) > pickupSuff='0000025920',
(PID.TID 0000.0001) ># nEndIter=25920,
(PID.TID 0000.0001) > nTimeSteps=4,
(PID.TID 0000.0001) > deltaTmom=3600.,
(PID.TID 0000.0001) > deltaTtracer=3600.,
(PID.TID 0000.0001) > deltaTClock =3600.,
(PID.TID 0000.0001) > abEps=0.1,
(PID.TID 0000.0001) > pChkptFreq  = 31104000.,
(PID.TID 0000.0001) > chkptFreq   = 31104000.,
(PID.TID 0000.0001) ># dumpFreq    = 31104000.,
(PID.TID 0000.0001) > dumpInitAndLast=.FALSE.,
(PID.TID 0000.0001) ># taveFreq    = 31104000.,
(PID.TID 0000.0001) >#taveFreq    = 2592000.,
(PID.TID 0000.0001) ># monitorFreq = 2592000.,
(PID.TID 0000.0001) >#monitorFreq = 86400.,
(PID.TID 0000.0001) ># monitorFreq = 31104000.,
(PID.TID 0000.0001) > monitorFreq = 1.,
(PID.TID 0000.0001) > tauThetaClimRelax=0.,
(PID.TID 0000.0001) > tauSaltClimRelax=0.,
(PID.TID 0000.0001) > periodicExternalForcing=.TRUE.,
(PID.TID 0000.0001) > externForcingPeriod=2592000.,
(PID.TID 0000.0001) > externForcingCycle=31104000.,
(PID.TID 0000.0001) >/
(PID.TID 0000.0001) >
(PID.TID 0000.0001) ># *******************
(PID.TID 0000.0001) ># Gridding parameters
(PID.TID 0000.0001) ># *******************
(PID.TID 0000.0001) >&PARM04
(PID.TID 0000.0001) >usingCartesianGrid=.FALSE.,
(PID.TID 0000.0001) >usingSphericalPolarGrid=.TRUE.,
(PID.TID 0000.0001) >delX=360*1.E0,
(PID.TID 0000.0001) >delY=160*1.E0,
(PID.TID 0000.0001) >delZ=10.,10.,15.,20.,20.,25.,35.,50.,75.,
(PID.TID 0000.0001) >100.,150.,200.,275.,350.,415.,450.,500.,
(PID.TID 0000.0001) >500.,500.,500.,500.,500.,500.,
(PID.TID 0000.0001) >xgOrigin=0,
(PID.TID 0000.0001) >ygOrigin=-80.,
(PID.TID 0000.0001) >/
(PID.TID 0000.0001) >
(PID.TID 0000.0001) ># **********
(PID.TID 0000.0001) ># Data Files
(PID.TID 0000.0001) ># **********
(PID.TID 0000.0001) >&PARM05
(PID.TID 0000.0001) >bathyFile=       'input_ecco/bathy_fl.bin',
(PID.TID 0000.0001) >zonalWindFile=   '',
(PID.TID 0000.0001) >meridWindFile=   '',
(PID.TID 0000.0001) >thetaClimFile=   '',
(PID.TID 0000.0001) >saltClimFile=    '',
(PID.TID 0000.0001) >surfQFile=       '',
(PID.TID 0000.0001) >EmPmRFile=       '',
(PID.TID 0000.0001) >/
(PID.TID 0000.0001) 
(PID.TID 0000.0001)  INI_PARMS ; starts to read PARM01
(PID.TID 0000.0001)  INI_PARMS ; read PARM01 : OK
(PID.TID 0000.0001)  INI_PARMS ; starts to read PARM02
(PID.TID 0000.0001)  INI_PARMS ; read PARM02 : OK
(PID.TID 0000.0001)  INI_PARMS ; starts to read PARM03
(PID.TID 0000.0001)  INI_PARMS ; read PARM03 : OK
(PID.TID 0000.0001)  INI_PARMS ; starts to read PARM04
(PID.TID 0000.0001)  INI_PARMS ; read PARM04 : OK
(PID.TID 0000.0001)  INI_PARMS ; starts to read PARM05
(PID.TID 0000.0001)  INI_PARMS ; read PARM05 : OK
(PID.TID 0000.0001)  INI_PARMS: finished reading file "data"
(PID.TID 0000.0001)  PACKAGES_BOOT: opening data.pkg
(PID.TID 0000.0001)  OPEN_COPY_DATA_FILE: opening file data.pkg
(PID.TID 0000.0001) // =======================================================
(PID.TID 0000.0001) // Removing comments from "data.pkg"
(PID.TID 0000.0001) // =======================================================
(PID.TID 0000.0001)    1  &PACKAGES
(PID.TID 0000.0001)    2  useGMRedi=.TRUE.
(PID.TID 0000.0001)    3  usePTRACERS=.TRUE.
(PID.TID 0000.0001)    4  useGCHEM=.TRUE.,
(PID.TID 0000.0001)    5  useKPP=.TRUE.,
(PID.TID 0000.0001)    6  useMNC=.TRUE.,
(PID.TID 0000.0001)    7  useEXF=.TRUE.,
(PID.TID 0000.0001)    8  useCAL=.TRUE.,
(PID.TID 0000.0001)    9  useOFFLINE=.TRUE.,
(PID.TID 0000.0001)   10  useDIAGNOSTICS=.TRUE.,
(PID.TID 0000.0001)   11  /
(PID.TID 0000.0001) // =======================================================
(PID.TID 0000.0001) // Parameter file "data.pkg"
(PID.TID 0000.0001) // =======================================================
(PID.TID 0000.0001) ># Packages
(PID.TID 0000.0001) > &PACKAGES
(PID.TID 0000.0001) > useGMRedi=.TRUE.
(PID.TID 0000.0001) > usePTRACERS=.TRUE.
(PID.TID 0000.0001) > useGCHEM=.TRUE.,
(PID.TID 0000.0001) > useKPP=.TRUE.,
(PID.TID 0000.0001) > useMNC=.TRUE.,
(PID.TID 0000.0001) > useEXF=.TRUE.,
(PID.TID 0000.0001) > useCAL=.TRUE.,
(PID.TID 0000.0001) > useOFFLINE=.TRUE.,
(PID.TID 0000.0001) > useDIAGNOSTICS=.TRUE.,
(PID.TID 0000.0001) > /
(PID.TID 0000.0001) 
(PID.TID 0000.0001)  PACKAGES_BOOT: finished reading data.pkg
(PID.TID 0000.0001)  PACKAGES_BOOT: On/Off package Summary
 --------  pkgs with a standard "usePKG" On/Off switch in "data.pkg":  --------
 pkg/kpp                  compiled   and   used ( useKPP                   = T )
 pkg/gmredi               compiled   and   used ( useGMRedi                = T )
 pkg/cal                  compiled   and   used ( useCAL                   = T )
 pkg/exf                  compiled   and   used ( useEXF                   = T )
 pkg/sbo                  compiled but not used ( useSBO                   = F )
 pkg/ptracers             compiled   and   used ( usePTRACERS              = T )
 pkg/gchem                compiled   and   used ( useGCHEM                 = T )
 pkg/offline              compiled   and   used ( useOffLine               = T )
 pkg/diagnostics          compiled   and   used ( useDiagnostics           = T )
 pkg/mnc                  compiled   and   used ( useMNC                   = T )
 -------- pkgs without standard "usePKG" On/Off switch in "data.pkg":  --------
 pkg/generic_advdiff      compiled   and   used ( useGAD                   = T )
 pkg/mom_common           compiled   and   used ( momStepping              = T )
 pkg/mom_vecinv           compiled but not used ( +vectorInvariantMomentum = F )
 pkg/mom_fluxform         compiled   and   used ( & not vectorInvariantMom = T )
 pkg/monitor              compiled   and   used ( monitorFreq > 0.         = T )
 pkg/timeave              compiled but not used ( taveFreq > 0.            = F )
 pkg/rw                   compiled   and   used
 pkg/mdsio                compiled   and   used
(PID.TID 0000.0001)  PACKAGES_BOOT: End of package Summary
(PID.TID 0000.0001) 
(PID.TID 0000.0001)  MNC_READPARMS: opening file 'data.mnc'
(PID.TID 0000.0001)  OPEN_COPY_DATA_FILE: opening file data.mnc
(PID.TID 0000.0001) // =======================================================
(PID.TID 0000.0001) // Removing comments from "data.mnc"
(PID.TID 0000.0001) // =======================================================
(PID.TID 0000.0001)    1  &MNC_01
(PID.TID 0000.0001)    2  mnc_use_outdir=.TRUE.,
(PID.TID 0000.0001)    3  mnc_outdir_str='mnc_test_',
(PID.TID 0000.0001)    4  monitor_mnc=.FALSE.,
(PID.TID 0000.0001)    5  snapshot_mnc=.TRUE.,
(PID.TID 0000.0001)    6  timeave_mnc=.TRUE.,
(PID.TID 0000.0001)    7  pickup_read_mnc=.FALSE.,
(PID.TID 0000.0001)    8  pickup_write_mnc=.FALSE.,
(PID.TID 0000.0001)    9  mnc_filefreq = 2592000.
(PID.TID 0000.0001)   10  mnc_max_fsize=1E12,
(PID.TID 0000.0001)   11  &
(PID.TID 0000.0001) // =======================================================
(PID.TID 0000.0001) // Parameter file "data.mnc"
(PID.TID 0000.0001) // =======================================================
(PID.TID 0000.0001) ># Example "data.mnc" file
(PID.TID 0000.0001) ># Lines beginning "#" are comments
(PID.TID 0000.0001) > &MNC_01
(PID.TID 0000.0001) ># mnc_echo_gvtypes=.FALSE.,
(PID.TID 0000.0001) ># mnc_use_indir=.FALSE.,
(PID.TID 0000.0001) > mnc_use_outdir=.TRUE.,
(PID.TID 0000.0001) > mnc_outdir_str='mnc_test_',
(PID.TID 0000.0001) ># mnc_outdir_date=.TRUE.,
(PID.TID 0000.0001) > monitor_mnc=.FALSE.,
(PID.TID 0000.0001) > snapshot_mnc=.TRUE.,
(PID.TID 0000.0001) > timeave_mnc=.TRUE.,
(PID.TID 0000.0001) > pickup_read_mnc=.FALSE.,
(PID.TID 0000.0001) > pickup_write_mnc=.FALSE.,
(PID.TID 0000.0001) > mnc_filefreq = 2592000.
(PID.TID 0000.0001) > mnc_max_fsize=1E12,
(PID.TID 0000.0001) > &
(PID.TID 0000.0001) ># Note: Some systems use & as the
(PID.TID 0000.0001) ># namelist terminator. Other systems
(PID.TID 0000.0001) ># use a / character.
(PID.TID 0000.0001) 
(PID.TID 0000.0001)  MNC_READPARMS: finished reading data.mnc
(PID.TID 0000.0001) CAL_READPARMS: opening data.cal
(PID.TID 0000.0001)  OPEN_COPY_DATA_FILE: opening file data.cal
(PID.TID 0000.0001) // =======================================================
(PID.TID 0000.0001) // Removing comments from "data.cal"
(PID.TID 0000.0001) // =======================================================
(PID.TID 0000.0001)    1  &CAL_NML
(PID.TID 0000.0001)    2  TheCalendar='model',
(PID.TID 0000.0001)    3  startDate_1=20000101,
(PID.TID 0000.0001)    4  startDate_2=000000,
(PID.TID 0000.0001)    5  calendarDumps = .TRUE.
(PID.TID 0000.0001)    6  &
(PID.TID 0000.0001) // =======================================================
(PID.TID 0000.0001) // Parameter file "data.cal"
(PID.TID 0000.0001) // =======================================================
(PID.TID 0000.0001) ># *******************
(PID.TID 0000.0001) ># Calendar Parameters
(PID.TID 0000.0001) ># *******************
(PID.TID 0000.0001) > &CAL_NML
(PID.TID 0000.0001) > TheCalendar='model',
(PID.TID 0000.0001) > startDate_1=20000101,
(PID.TID 0000.0001) > startDate_2=000000,
(PID.TID 0000.0001) > calendarDumps = .TRUE.
(PID.TID 0000.0001) > &
(PID.TID 0000.0001) 
(PID.TID 0000.0001) CAL_READPARMS: finished reading data.cal
(PID.TID 0000.0001) EXF_READPARMS: opening data.exf
(PID.TID 0000.0001)  OPEN_COPY_DATA_FILE: opening file data.exf
(PID.TID 0000.0001) // =======================================================
(PID.TID 0000.0001) // Removing comments from "data.exf"
(PID.TID 0000.0001) // =======================================================
(PID.TID 0000.0001)    1  &EXF_NML_01
(PID.TID 0000.0001)    2  exf_iprec         = 32,
(PID.TID 0000.0001)    3  exf_yftype        = 'RL',
(PID.TID 0000.0001)    4  useExfCheckRange  = .FALSE.,
(PID.TID 0000.0001)    5  repeatPeriod = 31104000.,
(PID.TID 0000.0001)    6  &
(PID.TID 0000.0001)    7  &EXF_NML_02
(PID.TID 0000.0001)    8  &
(PID.TID 0000.0001)    9  &EXF_NML_03
(PID.TID 0000.0001)   10  &
(PID.TID 0000.0001)   11  &EXF_NML_04
(PID.TID 0000.0001)   12  &
(PID.TID 0000.0001) // =======================================================
(PID.TID 0000.0001) // Parameter file "data.exf"
(PID.TID 0000.0001) // =======================================================
(PID.TID 0000.0001) ># *********************
(PID.TID 0000.0001) ># External Forcing Data
(PID.TID 0000.0001) ># *********************
(PID.TID 0000.0001) >#
(PID.TID 0000.0001) > &EXF_NML_01
(PID.TID 0000.0001) > exf_iprec         = 32,
(PID.TID 0000.0001) > exf_yftype        = 'RL',
(PID.TID 0000.0001) ># useExfYearlyFields= .TRUE.,
(PID.TID 0000.0001) ># twoDigitYear      = .TRUE.,
(PID.TID 0000.0001) > useExfCheckRange  = .FALSE.,
(PID.TID 0000.0001) > repeatPeriod = 31104000.,
(PID.TID 0000.0001) > &
(PID.TID 0000.0001) >#
(PID.TID 0000.0001) > &EXF_NML_02
(PID.TID 0000.0001) > &
(PID.TID 0000.0001) >#
(PID.TID 0000.0001) > &EXF_NML_03
(PID.TID 0000.0001) > &
(PID.TID 0000.0001) >#
(PID.TID 0000.0001) > &EXF_NML_04
(PID.TID 0000.0001) > &
(PID.TID 0000.0001) 
(PID.TID 0000.0001) EXF_READPARMS: reading EXF_NML_01
(PID.TID 0000.0001) EXF_READPARMS: reading EXF_NML_02
(PID.TID 0000.0001) EXF_READPARMS: reading EXF_NML_03
(PID.TID 0000.0001) EXF_READPARMS: finished reading data.exf
(PID.TID 0000.0001)  KPP_READPARMS: opening data.kpp
(PID.TID 0000.0001)  OPEN_COPY_DATA_FILE: opening file data.kpp
(PID.TID 0000.0001) // =======================================================
(PID.TID 0000.0001) // Removing comments from "data.kpp"
(PID.TID 0000.0001) // =======================================================
(PID.TID 0000.0001)    1  &KPP_PARM01
(PID.TID 0000.0001)    2  &
(PID.TID 0000.0001) // =======================================================
(PID.TID 0000.0001) // Parameter file "data.kpp"
(PID.TID 0000.0001) // =======================================================
(PID.TID 0000.0001) >#
(PID.TID 0000.0001) ># ***************
(PID.TID 0000.0001) ># Open boundaries
(PID.TID 0000.0001) ># ***************
(PID.TID 0000.0001) > &KPP_PARM01
(PID.TID 0000.0001) ># KPPwriteState   = .TRUE.,
(PID.TID 0000.0001) > &
(PID.TID 0000.0001) 
(PID.TID 0000.0001)  KPP_READPARMS ; starts to read KPP_PARM01
(PID.TID 0000.0001)  KPP_READPARMS ; read KPP_PARM01 : OK
(PID.TID 0000.0001)  KPP_READPARMS: finished reading data.kpp
(PID.TID 0000.0001)  GM_READPARMS: opening data.gmredi
(PID.TID 0000.0001)  OPEN_COPY_DATA_FILE: opening file data.gmredi
(PID.TID 0000.0001) // =======================================================
(PID.TID 0000.0001) // Removing comments from "data.gmredi"
(PID.TID 0000.0001) // =======================================================
(PID.TID 0000.0001)    1
(PID.TID 0000.0001)    2
(PID.TID 0000.0001)    3 (default=GM_background_K)
(PID.TID 0000.0001)    4 form)
(PID.TID 0000.0001)    5
(PID.TID 0000.0001)    6  &GM_PARM01
(PID.TID 0000.0001)    7   GM_Small_Number    = 1.D-20,
(PID.TID 0000.0001)    8   GM_slopeSqCutoff   = 1.D+08,
(PID.TID 0000.0001)    9   GM_AdvForm         = .FALSE.,
(PID.TID 0000.0001)   10   GM_isopycK         = 1.D+3,
(PID.TID 0000.0001)   11   GM_background_K    = 1.D+3,
(PID.TID 0000.0001)   12   GM_maxSlope        = 1.D-2,
(PID.TID 0000.0001)   13   GM_taper_scheme    = 'dm95',
(PID.TID 0000.0001)   14   GM_Kmin_horiz      = 50.,
(PID.TID 0000.0001)   15   GM_Scrit           = 4.D-3,
(PID.TID 0000.0001)   16   GM_Sd              = 1.D-3,
(PID.TID 0000.0001)   17  &
(PID.TID 0000.0001)   18
(PID.TID 0000.0001) // =======================================================
(PID.TID 0000.0001) // Parameter file "data.gmredi"
(PID.TID 0000.0001) // =======================================================
(PID.TID 0000.0001) ># GM+Redi package parameters:
(PID.TID 0000.0001) >#     GM_Small_Number  :: epsilon used in computing the slope
(PID.TID 0000.0001) >#     GM_slopeSqCutoff :: slope^2 cut-off value
(PID.TID 0000.0001) >
(PID.TID 0000.0001) >#-from MOM :
(PID.TID 0000.0001) ># GM_background_K:      G & Mc.W  diffusion coefficient
(PID.TID 0000.0001) ># GM_maxSlope    :      max slope of isopycnals
(PID.TID 0000.0001) ># GM_Scrit       :      transition for scaling diffusion coefficient
(PID.TID 0000.0001) ># GM_Sd          :      half width scaling for diffusion coefficient
(PID.TID 0000.0001) ># GM_taper_scheme:      slope clipping or one of the tapering schemes
(PID.TID 0000.0001) ># GM_Kmin_horiz  :      horizontal diffusion minimum value
(PID.TID 0000.0001) >
(PID.TID 0000.0001) >#-Option parameters (needs to "define" options in GMREDI_OPTIONS.h")
(PID.TID 0000.0001) ># GM_isopycK     :      isopycnal diffusion coefficient
(PID.TID 0000.0001) >(default=GM_background_K)
(PID.TID 0000.0001) ># GM_AdvForm     :      turn on GM Advective form       (default=Skew flux
(PID.TID 0000.0001) >form)
(PID.TID 0000.0001) >
(PID.TID 0000.0001) > &GM_PARM01
(PID.TID 0000.0001) >  GM_Small_Number    = 1.D-20,
(PID.TID 0000.0001) >  GM_slopeSqCutoff   = 1.D+08,
(PID.TID 0000.0001) >  GM_AdvForm         = .FALSE.,
(PID.TID 0000.0001) >  GM_isopycK         = 1.D+3,
(PID.TID 0000.0001) >  GM_background_K    = 1.D+3,
(PID.TID 0000.0001) >  GM_maxSlope        = 1.D-2,
(PID.TID 0000.0001) >  GM_taper_scheme    = 'dm95',
(PID.TID 0000.0001) >  GM_Kmin_horiz      = 50.,
(PID.TID 0000.0001) >  GM_Scrit           = 4.D-3,
(PID.TID 0000.0001) >  GM_Sd              = 1.D-3,
(PID.TID 0000.0001) >#
(PID.TID 0000.0001) >###  GM_Visbeck_alpha   = 1.5D-2,
(PID.TID 0000.0001) >###  GM_Visbeck_alpha   = 0.D0,
(PID.TID 0000.0001) >###  GM_Visbeck_length  = 2.D+5,
(PID.TID 0000.0001) >###  GM_Visbeck_depth   = 1.D+3,
(PID.TID 0000.0001) >###  GM_Visbeck_maxval_K= 2.5D+3,
(PID.TID 0000.0001) > &
(PID.TID 0000.0001) >
(PID.TID 0000.0001) 
(PID.TID 0000.0001)  GM_READPARMS: finished reading data.gmredi
(PID.TID 0000.0001)  PTRACERS_READPARMS: opening data.ptracers
(PID.TID 0000.0001)  OPEN_COPY_DATA_FILE: opening file data.ptracers
(PID.TID 0000.0001) // =======================================================
(PID.TID 0000.0001) // Removing comments from "data.ptracers"
(PID.TID 0000.0001) // =======================================================
(PID.TID 0000.0001)    1  &PTRACERS_PARM01
(PID.TID 0000.0001)    2  PTRACERS_numInUse= 36,
(PID.TID 0000.0001)    3  PTRACERS_Iter0= 0,
(PID.TID 0000.0001)    4  PTRACERS_advScheme=36*33,
(PID.TID 0000.0001)    5  PTRACERS_diffKh=36*0.E3,
(PID.TID 0000.0001)    6  PTRACERS_diffKr=36*1.E-5,
(PID.TID 0000.0001)    7  PTRACERS_useGMRedi=36*.TRUE.,
(PID.TID 0000.0001)    8  PTRACERS_useKPP=36*.TRUE.,
(PID.TID 0000.0001)    9        PTRACERS_names(1)= 'DIC',
(PID.TID 0000.0001)   10        PTRACERS_names(2)= 'NH4',
(PID.TID 0000.0001)   11        PTRACERS_names(3)= 'NO2',
(PID.TID 0000.0001)   12        PTRACERS_names(4)= 'NO3',
(PID.TID 0000.0001)   13        PTRACERS_names(5)= 'PO4',
(PID.TID 0000.0001)   14        PTRACERS_names(6)= 'SiO2',
(PID.TID 0000.0001)   15        PTRACERS_names(7)= 'FeT',
(PID.TID 0000.0001)   16        PTRACERS_names(8)= 'DOC',
(PID.TID 0000.0001)   17        PTRACERS_names(9)= 'DON',
(PID.TID 0000.0001)   18        PTRACERS_names(10)= 'DOP',
(PID.TID 0000.0001)   19        PTRACERS_names(11)= 'DOFe',
(PID.TID 0000.0001)   20        PTRACERS_names(12)= 'POC',
(PID.TID 0000.0001)   21        PTRACERS_names(13)= 'PON',
(PID.TID 0000.0001)   22        PTRACERS_names(14)= 'POP',
(PID.TID 0000.0001)   23        PTRACERS_names(15)= 'POSi',
(PID.TID 0000.0001)   24        PTRACERS_names(16)= 'POFe',
(PID.TID 0000.0001)   25        PTRACERS_names(17)= 'PIC',
(PID.TID 0000.0001)   26        PTRACERS_names(18)= 'ALK',
(PID.TID 0000.0001)   27        PTRACERS_names(19)= 'O2',
(PID.TID 0000.0001)   28        PTRACERS_names(20)= 'CDOM01',
(PID.TID 0000.0001)   29        PTRACERS_names(21)= 'c01',
(PID.TID 0000.0001)   30        PTRACERS_names(22)= 'c02',
(PID.TID 0000.0001)   31        PTRACERS_names(23)= 'c03',
(PID.TID 0000.0001)   32        PTRACERS_names(24)= 'c04',
(PID.TID 0000.0001)   33        PTRACERS_names(25)= 'n01',
(PID.TID 0000.0001)   34        PTRACERS_names(26)= 'n02',
(PID.TID 0000.0001)   35        PTRACERS_names(27)= 'n03',
(PID.TID 0000.0001)   36        PTRACERS_names(28)= 'n04',
(PID.TID 0000.0001)   37        PTRACERS_names(29)= 'p01',
(PID.TID 0000.0001)   38        PTRACERS_names(30)= 'p02',
(PID.TID 0000.0001)   39        PTRACERS_names(31)= 'p03',
(PID.TID 0000.0001)   40        PTRACERS_names(32)= 'p04',
(PID.TID 0000.0001)   41        PTRACERS_names(33)= 'fe01',
(PID.TID 0000.0001)   42        PTRACERS_names(34)= 'fe02',
(PID.TID 0000.0001)   43        PTRACERS_names(35)= 'fe03',
(PID.TID 0000.0001)   44        PTRACERS_names(36)= 'fe04',
(PID.TID 0000.0001)   45
(PID.TID 0000.0001)   46
(PID.TID 0000.0001)   47  PTRACERS_initialFile(1)='input_ecco/glodap_tco2_ann-3d.bin',
(PID.TID 0000.0001)   48  PTRACERS_initialFile(2)='DARWIN_ECCO_run17/nh4_y2000.data',
(PID.TID 0000.0001)   49  PTRACERS_initialFile(3)='DARWIN_ECCO_run17/no2_y2000.data',
(PID.TID 0000.0001)   50  PTRACERS_initialFile(4)='input_ecco/lev01_nitrate_ann-3d.bin',
(PID.TID 0000.0001)   51  PTRACERS_initialFile(5)='input_ecco/lev01_phosphate_ann-3d.bin',
(PID.TID 0000.0001)   52  PTRACERS_initialFile(6)='input_ecco/lev01_silicate_ann-3d.bin ',
(PID.TID 0000.0001)   53  PTRACERS_initialFile(7)='DARWIN_ECCO_run17/fet_y2000.data',
(PID.TID 0000.0001)   54  PTRACERS_initialFile(8)='DARWIN_ECCO_run17/doc_y2000.data',
(PID.TID 0000.0001)   55  PTRACERS_initialFile(9)='DARWIN_ECCO_run17/don_y2000.data',
(PID.TID 0000.0001)   56  PTRACERS_initialFile(10)='DARWIN_ECCO_run17/dop_y2000.data',
(PID.TID 0000.0001)   57  PTRACERS_initialFile(11)='DARWIN_ECCO_run17/dofe_y2000.data',
(PID.TID 0000.0001)   58  PTRACERS_initialFile(12)='DARWIN_ECCO_run17/poc_y2000.data',
(PID.TID 0000.0001)   59  PTRACERS_initialFile(13)='DARWIN_ECCO_run17/pon_y2000.data',
(PID.TID 0000.0001)   60  PTRACERS_initialFile(14)='DARWIN_ECCO_run17/pop_y2000.data',
(PID.TID 0000.0001)   61  PTRACERS_initialFile(15)='DARWIN_ECCO_run17/posi_y2000.data',
(PID.TID 0000.0001)   62  PTRACERS_initialFile(16)='DARWIN_ECCO_run17/pofe_y2000.data',
(PID.TID 0000.0001)   63  PTRACERS_initialFile(17)='DARWIN_ECCO_run17/pic_y2000.data',
(PID.TID 0000.0001)   64  PTRACERS_initialFile(18)='input_ecco/glodap_alk_ann-3d.bin',
(PID.TID 0000.0001)   65  PTRACERS_initialFile(19)='input_ecco/lev01_oxygen_ann-3d.bin',
(PID.TID 0000.0001)   66  PTRACERS_initialFile(20)='input_ecco/CDOM_run129abb4.bin',
(PID.TID 0000.0001)   67  PTRACERS_initialFile(21)='DARWIN_ECCO_run17/phy_6species_y2000.data',
(PID.TID 0000.0001)   68  PTRACERS_initialFile(22)='DARWIN_ECCO_run17/phy_6species_y2000.data',
(PID.TID 0000.0001)   69  PTRACERS_initialFile(23)='DARWIN_ECCO_run17/phy_6species_y2000.data',
(PID.TID 0000.0001)   70  PTRACERS_initialFile(24)='DARWIN_ECCO_run17/phy_6species_y2000.data',
(PID.TID 0000.0001)   71  PTRACERS_initialFile(25)='DARWIN_ECCO_run17/phy_6speciesn_y2000.data',
(PID.TID 0000.0001)   72  PTRACERS_initialFile(26)='DARWIN_ECCO_run17/phy_6speciesn_y2000.data',
(PID.TID 0000.0001)   73  PTRACERS_initialFile(27)='DARWIN_ECCO_run17/phy_6speciesn_y2000.data',
(PID.TID 0000.0001)   74  PTRACERS_initialFile(28)='DARWIN_ECCO_run17/phy_6speciesn_y2000.data',
(PID.TID 0000.0001)   75  PTRACERs_initialFile(29)='DARWIN_ECCO_run17/phy_6speciesp_y2000.data'
(PID.TID 0000.0001)   76  PTRACERs_initialFile(30)='DARWIN_ECCO_run17/phy_6speciesp_y2000.data'
(PID.TID 0000.0001)   77  PTRACERs_initialFile(31)='DARWIN_ECCO_run17/phy_6speciesp_y2000.data'
(PID.TID 0000.0001)   78  PTRACERs_initialFile(32)='DARWIN_ECCO_run17/phy_6speciesp_y2000.data'
(PID.TID 0000.0001)   79  PTRACERs_initialFile(33)='DARWIN_ECCO_run17/phy_6speciesfe_y2000.data'
(PID.TID 0000.0001)   80  PTRACERs_initialFile(34)='DARWIN_ECCO_run17/phy_6speciesfe_y2000.data'
(PID.TID 0000.0001)   81  PTRACERs_initialFile(35)='DARWIN_ECCO_run17/phy_6speciesfe_y2000.data'
(PID.TID 0000.0001)   82  PTRACERs_initialFile(36)='DARWIN_ECCO_run17/phy_6speciesfe_y2000.data'
(PID.TID 0000.0001)   83  &
(PID.TID 0000.0001) // =======================================================
(PID.TID 0000.0001) // Parameter file "data.ptracers"
(PID.TID 0000.0001) // =======================================================
(PID.TID 0000.0001) > &PTRACERS_PARM01
(PID.TID 0000.0001) > PTRACERS_numInUse= 36,
(PID.TID 0000.0001) > PTRACERS_Iter0= 0,
(PID.TID 0000.0001) >#
(PID.TID 0000.0001) > PTRACERS_advScheme=36*33,
(PID.TID 0000.0001) > PTRACERS_diffKh=36*0.E3,
(PID.TID 0000.0001) > PTRACERS_diffKr=36*1.E-5,
(PID.TID 0000.0001) > PTRACERS_useGMRedi=36*.TRUE.,
(PID.TID 0000.0001) > PTRACERS_useKPP=36*.TRUE.,
(PID.TID 0000.0001) >#
(PID.TID 0000.0001) >       PTRACERS_names(1)= 'DIC',
(PID.TID 0000.0001) >       PTRACERS_names(2)= 'NH4',
(PID.TID 0000.0001) >       PTRACERS_names(3)= 'NO2',
(PID.TID 0000.0001) >       PTRACERS_names(4)= 'NO3',
(PID.TID 0000.0001) >       PTRACERS_names(5)= 'PO4',
(PID.TID 0000.0001) >       PTRACERS_names(6)= 'SiO2',
(PID.TID 0000.0001) >       PTRACERS_names(7)= 'FeT',
(PID.TID 0000.0001) >       PTRACERS_names(8)= 'DOC',
(PID.TID 0000.0001) >       PTRACERS_names(9)= 'DON',
(PID.TID 0000.0001) >       PTRACERS_names(10)= 'DOP',
(PID.TID 0000.0001) >       PTRACERS_names(11)= 'DOFe',
(PID.TID 0000.0001) >       PTRACERS_names(12)= 'POC',
(PID.TID 0000.0001) >       PTRACERS_names(13)= 'PON',
(PID.TID 0000.0001) >       PTRACERS_names(14)= 'POP',
(PID.TID 0000.0001) >       PTRACERS_names(15)= 'POSi',
(PID.TID 0000.0001) >       PTRACERS_names(16)= 'POFe',
(PID.TID 0000.0001) >       PTRACERS_names(17)= 'PIC',
(PID.TID 0000.0001) >       PTRACERS_names(18)= 'ALK',
(PID.TID 0000.0001) >       PTRACERS_names(19)= 'O2',
(PID.TID 0000.0001) >       PTRACERS_names(20)= 'CDOM01',
(PID.TID 0000.0001) >       PTRACERS_names(21)= 'c01',
(PID.TID 0000.0001) >       PTRACERS_names(22)= 'c02',
(PID.TID 0000.0001) >       PTRACERS_names(23)= 'c03',
(PID.TID 0000.0001) >       PTRACERS_names(24)= 'c04',
(PID.TID 0000.0001) >       PTRACERS_names(25)= 'n01',
(PID.TID 0000.0001) >       PTRACERS_names(26)= 'n02',
(PID.TID 0000.0001) >       PTRACERS_names(27)= 'n03',
(PID.TID 0000.0001) >       PTRACERS_names(28)= 'n04',
(PID.TID 0000.0001) >       PTRACERS_names(29)= 'p01',
(PID.TID 0000.0001) >       PTRACERS_names(30)= 'p02',
(PID.TID 0000.0001) >       PTRACERS_names(31)= 'p03',
(PID.TID 0000.0001) >       PTRACERS_names(32)= 'p04',
(PID.TID 0000.0001) >       PTRACERS_names(33)= 'fe01',
(PID.TID 0000.0001) >       PTRACERS_names(34)= 'fe02',
(PID.TID 0000.0001) >       PTRACERS_names(35)= 'fe03',
(PID.TID 0000.0001) >       PTRACERS_names(36)= 'fe04',
(PID.TID 0000.0001) >
(PID.TID 0000.0001) >
(PID.TID 0000.0001) > PTRACERS_initialFile(1)='input_ecco/glodap_tco2_ann-3d.bin',
(PID.TID 0000.0001) > PTRACERS_initialFile(2)='DARWIN_ECCO_run17/nh4_y2000.data',
(PID.TID 0000.0001) > PTRACERS_initialFile(3)='DARWIN_ECCO_run17/no2_y2000.data',
(PID.TID 0000.0001) > PTRACERS_initialFile(4)='input_ecco/lev01_nitrate_ann-3d.bin',
(PID.TID 0000.0001) > PTRACERS_initialFile(5)='input_ecco/lev01_phosphate_ann-3d.bin',
(PID.TID 0000.0001) > PTRACERS_initialFile(6)='input_ecco/lev01_silicate_ann-3d.bin ',
(PID.TID 0000.0001) > PTRACERS_initialFile(7)='DARWIN_ECCO_run17/fet_y2000.data',
(PID.TID 0000.0001) > PTRACERS_initialFile(8)='DARWIN_ECCO_run17/doc_y2000.data',
(PID.TID 0000.0001) > PTRACERS_initialFile(9)='DARWIN_ECCO_run17/don_y2000.data',
(PID.TID 0000.0001) > PTRACERS_initialFile(10)='DARWIN_ECCO_run17/dop_y2000.data',
(PID.TID 0000.0001) > PTRACERS_initialFile(11)='DARWIN_ECCO_run17/dofe_y2000.data',
(PID.TID 0000.0001) > PTRACERS_initialFile(12)='DARWIN_ECCO_run17/poc_y2000.data',
(PID.TID 0000.0001) > PTRACERS_initialFile(13)='DARWIN_ECCO_run17/pon_y2000.data',
(PID.TID 0000.0001) > PTRACERS_initialFile(14)='DARWIN_ECCO_run17/pop_y2000.data',
(PID.TID 0000.0001) > PTRACERS_initialFile(15)='DARWIN_ECCO_run17/posi_y2000.data',
(PID.TID 0000.0001) > PTRACERS_initialFile(16)='DARWIN_ECCO_run17/pofe_y2000.data',
(PID.TID 0000.0001) > PTRACERS_initialFile(17)='DARWIN_ECCO_run17/pic_y2000.data',
(PID.TID 0000.0001) > PTRACERS_initialFile(18)='input_ecco/glodap_alk_ann-3d.bin',
(PID.TID 0000.0001) > PTRACERS_initialFile(19)='input_ecco/lev01_oxygen_ann-3d.bin',
(PID.TID 0000.0001) > PTRACERS_initialFile(20)='input_ecco/CDOM_run129abb4.bin',
(PID.TID 0000.0001) > PTRACERS_initialFile(21)='DARWIN_ECCO_run17/phy_6species_y2000.data',
(PID.TID 0000.0001) > PTRACERS_initialFile(22)='DARWIN_ECCO_run17/phy_6species_y2000.data',
(PID.TID 0000.0001) > PTRACERS_initialFile(23)='DARWIN_ECCO_run17/phy_6species_y2000.data',
(PID.TID 0000.0001) > PTRACERS_initialFile(24)='DARWIN_ECCO_run17/phy_6species_y2000.data',
(PID.TID 0000.0001) > PTRACERS_initialFile(25)='DARWIN_ECCO_run17/phy_6speciesn_y2000.data',
(PID.TID 0000.0001) > PTRACERS_initialFile(26)='DARWIN_ECCO_run17/phy_6speciesn_y2000.data',
(PID.TID 0000.0001) > PTRACERS_initialFile(27)='DARWIN_ECCO_run17/phy_6speciesn_y2000.data',
(PID.TID 0000.0001) > PTRACERS_initialFile(28)='DARWIN_ECCO_run17/phy_6speciesn_y2000.data',
(PID.TID 0000.0001) > PTRACERs_initialFile(29)='DARWIN_ECCO_run17/phy_6speciesp_y2000.data'
(PID.TID 0000.0001) > PTRACERs_initialFile(30)='DARWIN_ECCO_run17/phy_6speciesp_y2000.data'
(PID.TID 0000.0001) > PTRACERs_initialFile(31)='DARWIN_ECCO_run17/phy_6speciesp_y2000.data'
(PID.TID 0000.0001) > PTRACERs_initialFile(32)='DARWIN_ECCO_run17/phy_6speciesp_y2000.data'
(PID.TID 0000.0001) > PTRACERs_initialFile(33)='DARWIN_ECCO_run17/phy_6speciesfe_y2000.data'
(PID.TID 0000.0001) > PTRACERs_initialFile(34)='DARWIN_ECCO_run17/phy_6speciesfe_y2000.data'
(PID.TID 0000.0001) > PTRACERs_initialFile(35)='DARWIN_ECCO_run17/phy_6speciesfe_y2000.data'
(PID.TID 0000.0001) > PTRACERs_initialFile(36)='DARWIN_ECCO_run17/phy_6speciesfe_y2000.data'
(PID.TID 0000.0001) > &
(PID.TID 0000.0001) 
(PID.TID 0000.0001)  PTRACERS_READPARMS: finished reading data.ptracers
(PID.TID 0000.0001)  GCHEM_READPARMS: opening data.gchem
(PID.TID 0000.0001)  OPEN_COPY_DATA_FILE: opening file data.gchem
(PID.TID 0000.0001) // =======================================================
(PID.TID 0000.0001) // Removing comments from "data.gchem"
(PID.TID 0000.0001) // =======================================================
(PID.TID 0000.0001)    1  &GCHEM_PARM01
(PID.TID 0000.0001)    2   useGUD=.TRUE.,
(PID.TID 0000.0001)    3   nsubtime=1,
(PID.TID 0000.0001)    4  /
(PID.TID 0000.0001) // =======================================================
(PID.TID 0000.0001) // Parameter file "data.gchem"
(PID.TID 0000.0001) // =======================================================
(PID.TID 0000.0001) > &GCHEM_PARM01
(PID.TID 0000.0001) >  useGUD=.TRUE.,
(PID.TID 0000.0001) >  nsubtime=1,
(PID.TID 0000.0001) > /
(PID.TID 0000.0001) 
(PID.TID 0000.0001)  GCHEM_READPARMS: finished reading data.gchem
(PID.TID 0000.0001)  GUD_READPARMS: opening data.gud
(PID.TID 0000.0001)  OPEN_COPY_DATA_FILE: opening file data.gud
(PID.TID 0000.0001) // =======================================================
(PID.TID 0000.0001) // Removing comments from "data.gud"
(PID.TID 0000.0001) // =======================================================
(PID.TID 0000.0001)    1  &GUD_FORCING_PARAMS
(PID.TID 0000.0001)    2  ironFile='input_ecco/mahowald2009_solubile_current_smooth_oce_mth-2d.bin',
(PID.TID 0000.0001)    3  ironPeriod= -12.,
(PID.TID 0000.0001)    4  gud_inscal_iron= 2000.,
(PID.TID 0000.0001)    5  OASIM_EdFile( 1)='input_ecco/ecco_oasim_edp01_below.bin',
(PID.TID 0000.0001)    6  OASIM_EdFile( 2)='input_ecco/ecco_oasim_edp02_below.bin',
(PID.TID 0000.0001)    7  OASIM_EdFile( 3)='input_ecco/ecco_oasim_edp03_below.bin',
(PID.TID 0000.0001)    8  OASIM_EdFile( 4)='input_ecco/ecco_oasim_edp04_below.bin',
(PID.TID 0000.0001)    9  OASIM_EdFile( 5)='input_ecco/ecco_oasim_edp05_below.bin',
(PID.TID 0000.0001)   10  OASIM_EdFile( 6)='input_ecco/ecco_oasim_edp06_below.bin',
(PID.TID 0000.0001)   11  OASIM_EdFile( 7)='input_ecco/ecco_oasim_edp07_below.bin',
(PID.TID 0000.0001)   12  OASIM_EdFile( 8)='input_ecco/ecco_oasim_edp08_below.bin',
(PID.TID 0000.0001)   13  OASIM_EdFile( 9)='input_ecco/ecco_oasim_edp09_below.bin',
(PID.TID 0000.0001)   14  OASIM_EdFile(10)='input_ecco/ecco_oasim_edp10_below.bin',
(PID.TID 0000.0001)   15  OASIM_EdFile(11)='input_ecco/ecco_oasim_edp11_below.bin',
(PID.TID 0000.0001)   16  OASIM_EdFile(12)='input_ecco/ecco_oasim_edp12_below.bin',
(PID.TID 0000.0001)   17  OASIM_EdFile(13)='input_ecco/ecco_oasim_edp13_below.bin',
(PID.TID 0000.0001)   18  OASIM_EsFile( 1)='input_ecco/ecco_oasim_esp01_below.bin',
(PID.TID 0000.0001)   19  OASIM_EsFile( 2)='input_ecco/ecco_oasim_esp02_below.bin',
(PID.TID 0000.0001)   20  OASIM_EsFile( 3)='input_ecco/ecco_oasim_esp03_below.bin',
(PID.TID 0000.0001)   21  OASIM_EsFile( 4)='input_ecco/ecco_oasim_esp04_below.bin',
(PID.TID 0000.0001)   22  OASIM_EsFile( 5)='input_ecco/ecco_oasim_esp05_below.bin',
(PID.TID 0000.0001)   23  OASIM_EsFile( 6)='input_ecco/ecco_oasim_esp06_below.bin',
(PID.TID 0000.0001)   24  OASIM_EsFile( 7)='input_ecco/ecco_oasim_esp07_below.bin',
(PID.TID 0000.0001)   25  OASIM_EsFile( 8)='input_ecco/ecco_oasim_esp08_below.bin',
(PID.TID 0000.0001)   26  OASIM_EsFile( 9)='input_ecco/ecco_oasim_esp09_below.bin',
(PID.TID 0000.0001)   27  OASIM_EsFile(10)='input_ecco/ecco_oasim_esp10_below.bin',
(PID.TID 0000.0001)   28  OASIM_EsFile(11)='input_ecco/ecco_oasim_esp11_below.bin',
(PID.TID 0000.0001)   29  OASIM_EsFile(12)='input_ecco/ecco_oasim_esp12_below.bin',
(PID.TID 0000.0001)   30  OASIM_EsFile(13)='input_ecco/ecco_oasim_esp13_below.bin',
(PID.TID 0000.0001)   31  OASIMPeriod= -12.,
(PID.TID 0000.0001)   32  windFile='input_ecco/tren_speed_mth-2d.bin',
(PID.TID 0000.0001)   33  windPeriod= -12.,
(PID.TID 0000.0001)   34  icefile = 'eccov3/SIarea.bin',
(PID.TID 0000.0001)   35  icestartdate1 = 19990101,
(PID.TID 0000.0001)   36  icestartdate2 = 120000,
(PID.TID 0000.0001)   37  iceperiod     = 86400.0,
(PID.TID 0000.0001)   38  /
(PID.TID 0000.0001)   39  &GUD_PARAMS
(PID.TID 0000.0001)   40  diaz_ini_fac= 0.1,
(PID.TID 0000.0001)   41  idebug=271,
(PID.TID 0000.0001)   42  jdebug=63,
(PID.TID 0000.0001)   43  gud_seed= 56,
(PID.TID 0000.0001)   44  gud_read_phos= F,
(PID.TID 0000.0001)   45  tempCoeffArr= 0.8,
(PID.TID 0000.0001)   46  PARmin= 0.1,
(PID.TID 0000.0001)   47  alpfe= 1.0,
(PID.TID 0000.0001)   48  freefemax = .1E-3,
(PID.TID 0000.0001)   49  depthfesed= 7000.,
(PID.TID 0000.0001)   50  scav_rat= 1.73611111111111111111E-7,
(PID.TID 0000.0001)   51  kdoc=  3.8580246913580247E-7,  ! 1/30day
(PID.TID 0000.0001)   52  kdop=  3.8580246913580247E-7,  ! 1/30day
(PID.TID 0000.0001)   53  kdon=  3.8580246913580247E-7,  ! 1/30day
(PID.TID 0000.0001)   54  kdofe= 3.8580246913580247E-7,  ! 1/30day
(PID.TID 0000.0001)   55  kPOC=  3.8580246913580247E-7,  ! 1/30day
(PID.TID 0000.0001)   56  kPOP=  3.8580246913580247E-7,  ! 1/30day
(PID.TID 0000.0001)   57  kPON=  3.8580246913580247E-7,  ! 1/30day
(PID.TID 0000.0001)   58  kPOFe= 3.8580246913580247E-7,  ! 1/30day
(PID.TID 0000.0001)   59  kPOSi= 7.7160493827160493E-8,  ! 1/150day
(PID.TID 0000.0001)   60  phygrazmin= 120E-10,
(PID.TID 0000.0001)   61  hollexp = 2.E0,
(PID.TID 0000.0001)   62  hillnum = 0.01,
(PID.TID 0000.0001)   63  gud_atmos_pCO2= 278E-6,
(PID.TID 0000.0001)   64  /
(PID.TID 0000.0001)   65  &GUD_RADTRANS_PARAMS
(PID.TID 0000.0001)   66  gud_selectSolz = 1,
(PID.TID 0000.0001)   67  gud_waterabsorbFile='OPTICS_COEFF/optics_water_Aug2014_bandave25.txt',
(PID.TID 0000.0001)   68  gud_phytoabsorbFile='OPTICS_COEFF/optics_phyto_10_bandave25_newsize5_diffsyn_zoo.txt',
(PID.TID 0000.0001)   69  gud_particleabsorbFile='OPTICS_COEFF/optics_detritus_8_sameas4_bandave25.txt',
(PID.TID 0000.0001)   70  gud_radtrans_kmax=22,
(PID.TID 0000.0001)   71  gud_waveband_edges=400,412.5,437.5,462.5,487.5,512.5,537.5,562.5,587.5,612.5,637.5,662.5,687.5,700,
(PID.TID 0000.0001)   72  gud_waveband_centers=400,425,450,475,500,525,550,575,600,625,650,675,700,
(PID.TID 0000.0001)   73  gud_Sdom=0.0145000,
(PID.TID 0000.0001)   74  gud_aCDOM_fac = 0.30,
(PID.TID 0000.0001)   75  gud_part_size_P = 1.e-17,
(PID.TID 0000.0001)   76  gud_allomSpectra= T,
(PID.TID 0000.0001)   77  gud_absorpSlope= -0.075,
(PID.TID 0000.0001)   78  gud_bbbSlope=    -1.458,
(PID.TID 0000.0001)   79  gud_scatSwitchSizeLog= 2.860959e-01, 2.923177e-01, 2.983251e-01, 3.140574e-01, 3.261153e-01,
(PID.TID 0000.0001)   80                         3.440134e-01, 3.577670e-01, 3.618763e-01, 3.695100e-01, 3.718916e-01,
(PID.TID 0000.0001)   81                         3.706202e-01, 3.640583e-01, 3.682107e-01,
(PID.TID 0000.0001)   82  gud_scatSlopeSmall= 4.185404e+00, 4.208007e+00, 4.261307e+00, 4.302451e+00, 4.341968e+00,
(PID.TID 0000.0001)   83                      4.373109e+00, 4.392320e+00, 4.416705e+00, 4.434653e+00, 4.454953e+00,
(PID.TID 0000.0001)   84                      4.479809e+00, 4.507577e+00, 4.544071e+00,
(PID.TID 0000.0001)   85  gud_scatSlopeLarge= 1.723153e+00, 1.718186e+00, 1.699666e+00, 1.687533e+00, 1.710736e+00,
(PID.TID 0000.0001)   86                      1.732242e+00, 1.763117e+00, 1.811451e+00, 1.834619e+00, 1.863836e+00,
(PID.TID 0000.0001)   87                      1.897289e+00, 1.861866e+00, 1.907367e+00,
(PID.TID 0000.0001)   88  /
(PID.TID 0000.0001)   89
(PID.TID 0000.0001)   90  &GUD_CDOM_PARAMS
(PID.TID 0000.0001)   91   fracCDOM = 0.02,
(PID.TID 0000.0001)   92   cdomdegrd= 3.8580e-08,
(PID.TID 0000.0001)   93   CDOMbleach = 3.0000e-06,
(PID.TID 0000.0001)   94   PARCDOM = 70.,
(PID.TID 0000.0001)   95   R_NP_CDOM  = 16.,
(PID.TID 0000.0001)   96   R_FeP_CDOM = 1.e-3,
(PID.TID 0000.0001)   97   R_CP_CDOM  = 120.,
(PID.TID 0000.0001)   98   CDOMcoeff = 21.,
(PID.TID 0000.0001)   99  /
(PID.TID 0000.0001)  100  &GUD_RANDOM_PARAMS
(PID.TID 0000.0001)  101  /
(PID.TID 0000.0001)  102  &GUD_TRAIT_PARAMS
(PID.TID 0000.0001)  103  grp_names= 'Pro', 'Syn', 'PicoEuk', 'Cocco', 'Diazo', 'Tricho', 'Diatom', 'Dino', 'Zoo',
(PID.TID 0000.0001)  104  grp_nplank(:)=          0, 0, 2, 0, 0, 0,  0,  0, 2,
(PID.TID 0000.0001)  105  grp_photo(:)=           1, 1, 1, 1, 1, 1,  1,  1, 0,
(PID.TID 0000.0001)  106  grp_pred(:)=            0, 0, 0, 0, 0, 0,  0,  1, 1
(PID.TID 0000.0001)  107  grp_prey(:)=            1, 1, 1, 1, 1, 1,  1,  1, 1,
(PID.TID 0000.0001)  108  grp_hasSi(:)=           0, 0, 0, 0, 0, 0,  1,  0, 0,
(PID.TID 0000.0001)  109  grp_hasPIC(:)=          0, 0, 0, 1, 0, 0,  0,  0, 0,
(PID.TID 0000.0001)  110  grp_DIAZO(:)=           0, 0, 0, 0, 1, 1,  0,  0, 0,
(PID.TID 0000.0001)  111  grp_useNH4(:)=          1, 1, 1, 1, 1, 1,  1,  1, 0,
(PID.TID 0000.0001)  112  grp_useNO2(:)=          1, 1, 1, 1, 1, 1,  1,  1, 0,
(PID.TID 0000.0001)  113  grp_useNO3(:)=          1, 1, 1, 1, 1, 1,  1,  1, 0,
(PID.TID 0000.0001)  114  grp_combNO(:)=          1, 1, 1, 1, 1, 1,  1,  1, 0,
(PID.TID 0000.0001)  115  grp_tempMort(:)=        0, 0, 0, 0, 0, 0, 0, 0,  0,
(PID.TID 0000.0001)  116  grp_tempMort2(:)=       0, 0, 0, 0, 0, 0, 0, 0,  0,
(PID.TID 0000.0001)  117  grp_aptype(:)=          4, 2, 1, 6, 8, 7, 5, 9, 11,
(PID.TID 0000.0001)  118  grp_Xmin(:)= 8*120E-20,
(PID.TID 0000.0001)  119
(PID.TID 0000.0001)  120  grp_acclimtimescl(:)= 8*5.7870370370370370E-6,
(PID.TID 0000.0001)  121  logvolbase= -.9000,
(PID.TID 0000.0001)  122  logvolinc= .513,
(PID.TID 0000.0001)  123  logvol0ind(:)= 1, 2, 0, 5, 5, 9, 5, 7, 0,
(PID.TID 0000.0001)  124  grp_logvolind(1:2,3)= 4, 4,
(PID.TID 0000.0001)  125  grp_logvolind(1:2,9)= 8, 12,
(PID.TID 0000.0001)  126  a_biosink(:)= 8*6.951416635391563E-7, 0.,  ! .05*dm**.85
(PID.TID 0000.0001)  127  b_biosink(:)= 8*.2833333333333333, 0.,
(PID.TID 0000.0001)  128  a_vmax_DIC(1)= 0.90,
(PID.TID 0000.0001)  129  a_vmax_DIC(2)= 0.90,
(PID.TID 0000.0001)  130  a_vmax_DIC(3)= 0.90,
(PID.TID 0000.0001)  131  a_vmax_DIC(4)= 1.4,
(PID.TID 0000.0001)  132  a_vmax_DIC(5)= 0.95,
(PID.TID 0000.0001)  133  a_vmax_DIC(6)= 0.95,
(PID.TID 0000.0001)  134  a_vmax_DIC(7)= 3.9,
(PID.TID 0000.0001)  135  a_vmax_DIC(8)= 1.7,
(PID.TID 0000.0001)  136
(PID.TID 0000.0001)  137  a_vmax_DIC_denom(:)= 8*86400.,
(PID.TID 0000.0001)  138  b_vmax_DIC(:)= 0.08, 0.08, 0.08, -0.08, -0.08, -0.08,-0.08, -0.08, 0.,
(PID.TID 0000.0001)  139  a_qmin_p = 8*0.005, 0.008,
(PID.TID 0000.0001)  140  a_qmax_p = 8*0.02,  0.01,
(PID.TID 0000.0001)  141  a_qmin_n=8*7.0000000000000007E-002  , 0.1 ,
(PID.TID 0000.0001)  142  b_qmin_n=8*-0.17000000000000001     , 0.0 ,
(PID.TID 0000.0001)  143  a_qmax_n=8*0.25000000000000000      , 0.2 ,
(PID.TID 0000.0001)  144  b_qmax_n=8*-0.13000000000000000     , 0.0 ,
(PID.TID 0000.0001)  145  a_qmin_fe = 3*1.50E-6, 2*6.00E-6, 3*1.50E-6, 1E-6,
(PID.TID 0000.0001)  146  a_qmax_fe = 8*8.0E-5,  2E-5,
(PID.TID 0000.0001)  147  gud_effective_ksat= T,
(PID.TID 0000.0001)  148  gud_select_kn_allom=2,
(PID.TID 0000.0001)  149  grp_ExportFracPreyPred(1:8,9)= 8*.8,
(PID.TID 0000.0001)  150  grp_R_ChlC(9)= 0.,
(PID.TID 0000.0001)  151  a_graz(9)= 3.4722000000000000E-05,  ! prowe values
(PID.TID 0000.0001)  152  b_graz(9)= -0.16,
(PID.TID 0000.0001)  153  grp_mort(:)= 8*6e-07, 2e-7  ! 1/7days, 1/50days
(PID.TID 0000.0001)  154  grp_mort2(:)= 8*6.e-7, 8.e-7,  ! 16*.6/120/day
(PID.TID 0000.0001)  155  grp_tempcoeff2= 8*.0003,
(PID.TID 0000.0001)  156  grp_R_PC(:)= 9*0.008333333333333333,
(PID.TID 0000.0001)  157  grp_R_FeC(:)= 4*0.008333333333333333E-3, 2*0.03333333333333333E-3, 2*0.008333333333333333E-3, 1*0.001333333333333333E-3
(PID.TID 0000.0001)  158  grp_R_NC(:)= 4*0.13333333333333333, 2*0.3333333333333333, 3*0.13333333333333333,
(PID.TID 0000.0001)  159  grp_R_SiC(:)= 6*0., 0.13333333333333333, 2*0.,
(PID.TID 0000.0001)  160  grp_R_PICPOC(:)= 3*0., .8, 5*0.,
(PID.TID 0000.0001)  161  a_kg(:)= 8*1.5, 1*1.5,
(PID.TID 0000.0001)  162  b_kg(:)= 9*0,
(PID.TID 0000.0001)  163  grp_ass_eff(:,:)=81*0.5,
(PID.TID 0000.0001)  164  /
(PID.TID 0000.0001) // =======================================================
(PID.TID 0000.0001) // Parameter file "data.gud"
(PID.TID 0000.0001) // =======================================================
(PID.TID 0000.0001) >#######################
(PID.TID 0000.0001) > &GUD_FORCING_PARAMS
(PID.TID 0000.0001) >#gud_chlInitBalanced= T,
(PID.TID 0000.0001) > ironFile='input_ecco/mahowald2009_solubile_current_smooth_oce_mth-2d.bin',
(PID.TID 0000.0001) > ironPeriod= -12.,
(PID.TID 0000.0001) > gud_inscal_iron= 2000.,
(PID.TID 0000.0001) >#
(PID.TID 0000.0001) > OASIM_EdFile( 1)='input_ecco/ecco_oasim_edp01_below.bin',
(PID.TID 0000.0001) > OASIM_EdFile( 2)='input_ecco/ecco_oasim_edp02_below.bin',
(PID.TID 0000.0001) > OASIM_EdFile( 3)='input_ecco/ecco_oasim_edp03_below.bin',
(PID.TID 0000.0001) > OASIM_EdFile( 4)='input_ecco/ecco_oasim_edp04_below.bin',
(PID.TID 0000.0001) > OASIM_EdFile( 5)='input_ecco/ecco_oasim_edp05_below.bin',
(PID.TID 0000.0001) > OASIM_EdFile( 6)='input_ecco/ecco_oasim_edp06_below.bin',
(PID.TID 0000.0001) > OASIM_EdFile( 7)='input_ecco/ecco_oasim_edp07_below.bin',
(PID.TID 0000.0001) > OASIM_EdFile( 8)='input_ecco/ecco_oasim_edp08_below.bin',
(PID.TID 0000.0001) > OASIM_EdFile( 9)='input_ecco/ecco_oasim_edp09_below.bin',
(PID.TID 0000.0001) > OASIM_EdFile(10)='input_ecco/ecco_oasim_edp10_below.bin',
(PID.TID 0000.0001) > OASIM_EdFile(11)='input_ecco/ecco_oasim_edp11_below.bin',
(PID.TID 0000.0001) > OASIM_EdFile(12)='input_ecco/ecco_oasim_edp12_below.bin',
(PID.TID 0000.0001) > OASIM_EdFile(13)='input_ecco/ecco_oasim_edp13_below.bin',
(PID.TID 0000.0001) > OASIM_EsFile( 1)='input_ecco/ecco_oasim_esp01_below.bin',
(PID.TID 0000.0001) > OASIM_EsFile( 2)='input_ecco/ecco_oasim_esp02_below.bin',
(PID.TID 0000.0001) > OASIM_EsFile( 3)='input_ecco/ecco_oasim_esp03_below.bin',
(PID.TID 0000.0001) > OASIM_EsFile( 4)='input_ecco/ecco_oasim_esp04_below.bin',
(PID.TID 0000.0001) > OASIM_EsFile( 5)='input_ecco/ecco_oasim_esp05_below.bin',
(PID.TID 0000.0001) > OASIM_EsFile( 6)='input_ecco/ecco_oasim_esp06_below.bin',
(PID.TID 0000.0001) > OASIM_EsFile( 7)='input_ecco/ecco_oasim_esp07_below.bin',
(PID.TID 0000.0001) > OASIM_EsFile( 8)='input_ecco/ecco_oasim_esp08_below.bin',
(PID.TID 0000.0001) > OASIM_EsFile( 9)='input_ecco/ecco_oasim_esp09_below.bin',
(PID.TID 0000.0001) > OASIM_EsFile(10)='input_ecco/ecco_oasim_esp10_below.bin',
(PID.TID 0000.0001) > OASIM_EsFile(11)='input_ecco/ecco_oasim_esp11_below.bin',
(PID.TID 0000.0001) > OASIM_EsFile(12)='input_ecco/ecco_oasim_esp12_below.bin',
(PID.TID 0000.0001) > OASIM_EsFile(13)='input_ecco/ecco_oasim_esp13_below.bin',
(PID.TID 0000.0001) > OASIMPeriod= -12.,
(PID.TID 0000.0001) >#
(PID.TID 0000.0001) > windFile='input_ecco/tren_speed_mth-2d.bin',
(PID.TID 0000.0001) > windPeriod= -12.,
(PID.TID 0000.0001) > icefile = 'eccov3/SIarea.bin',
(PID.TID 0000.0001) > icestartdate1 = 19990101,
(PID.TID 0000.0001) > icestartdate2 = 120000,
(PID.TID 0000.0001) > iceperiod     = 86400.0,
(PID.TID 0000.0001) > /
(PID.TID 0000.0001) >########################
(PID.TID 0000.0001) > &GUD_PARAMS
(PID.TID 0000.0001) > diaz_ini_fac= 0.1,
(PID.TID 0000.0001) > idebug=271,
(PID.TID 0000.0001) > jdebug=63,
(PID.TID 0000.0001) > gud_seed= 56,
(PID.TID 0000.0001) > gud_read_phos= F,
(PID.TID 0000.0001) > tempCoeffArr= 0.8,
(PID.TID 0000.0001) > PARmin= 0.1,
(PID.TID 0000.0001) > alpfe= 1.0,
(PID.TID 0000.0001) > freefemax = .1E-3,
(PID.TID 0000.0001) > depthfesed= 7000.,
(PID.TID 0000.0001) > scav_rat= 1.73611111111111111111E-7,
(PID.TID 0000.0001) > kdoc=  3.8580246913580247E-7,  ! 1/30day
(PID.TID 0000.0001) > kdop=  3.8580246913580247E-7,  ! 1/30day
(PID.TID 0000.0001) > kdon=  3.8580246913580247E-7,  ! 1/30day
(PID.TID 0000.0001) > kdofe= 3.8580246913580247E-7,  ! 1/30day
(PID.TID 0000.0001) > kPOC=  3.8580246913580247E-7,  ! 1/30day
(PID.TID 0000.0001) > kPOP=  3.8580246913580247E-7,  ! 1/30day
(PID.TID 0000.0001) > kPON=  3.8580246913580247E-7,  ! 1/30day
(PID.TID 0000.0001) > kPOFe= 3.8580246913580247E-7,  ! 1/30day
(PID.TID 0000.0001) > kPOSi= 7.7160493827160493E-8,  ! 1/150day
(PID.TID 0000.0001) > phygrazmin= 120E-10,
(PID.TID 0000.0001) > hollexp = 2.E0,
(PID.TID 0000.0001) > hillnum = 0.01,
(PID.TID 0000.0001) > gud_atmos_pCO2= 278E-6,
(PID.TID 0000.0001) > /
(PID.TID 0000.0001) >########################
(PID.TID 0000.0001) > &GUD_RADTRANS_PARAMS
(PID.TID 0000.0001) > gud_selectSolz = 1,
(PID.TID 0000.0001) > gud_waterabsorbFile='OPTICS_COEFF/optics_water_Aug2014_bandave25.txt',
(PID.TID 0000.0001) > gud_phytoabsorbFile='OPTICS_COEFF/optics_phyto_10_bandave25_newsize5_diffsyn_zoo.txt',
(PID.TID 0000.0001) > gud_particleabsorbFile='OPTICS_COEFF/optics_detritus_8_sameas4_bandave25.txt',
(PID.TID 0000.0001) > gud_radtrans_kmax=22,
(PID.TID 0000.0001) > gud_waveband_edges=400,412.5,437.5,462.5,487.5,512.5,537.5,562.5,587.5,612.5,637.5,662.5,687.5,700,
(PID.TID 0000.0001) > gud_waveband_centers=400,425,450,475,500,525,550,575,600,625,650,675,700,
(PID.TID 0000.0001) > gud_Sdom=0.0145000,
(PID.TID 0000.0001) > gud_aCDOM_fac = 0.30,
(PID.TID 0000.0001) > gud_part_size_P = 1.e-17,
(PID.TID 0000.0001) > gud_allomSpectra= T,
(PID.TID 0000.0001) > gud_absorpSlope= -0.075,
(PID.TID 0000.0001) > gud_bbbSlope=    -1.458,
(PID.TID 0000.0001) > gud_scatSwitchSizeLog= 2.860959e-01, 2.923177e-01, 2.983251e-01, 3.140574e-01, 3.261153e-01,
(PID.TID 0000.0001) >                        3.440134e-01, 3.577670e-01, 3.618763e-01, 3.695100e-01, 3.718916e-01,
(PID.TID 0000.0001) >                        3.706202e-01, 3.640583e-01, 3.682107e-01,
(PID.TID 0000.0001) > gud_scatSlopeSmall= 4.185404e+00, 4.208007e+00, 4.261307e+00, 4.302451e+00, 4.341968e+00,
(PID.TID 0000.0001) >                     4.373109e+00, 4.392320e+00, 4.416705e+00, 4.434653e+00, 4.454953e+00,
(PID.TID 0000.0001) >                     4.479809e+00, 4.507577e+00, 4.544071e+00,
(PID.TID 0000.0001) > gud_scatSlopeLarge= 1.723153e+00, 1.718186e+00, 1.699666e+00, 1.687533e+00, 1.710736e+00,
(PID.TID 0000.0001) >                     1.732242e+00, 1.763117e+00, 1.811451e+00, 1.834619e+00, 1.863836e+00,
(PID.TID 0000.0001) >                     1.897289e+00, 1.861866e+00, 1.907367e+00,
(PID.TID 0000.0001) > /
(PID.TID 0000.0001) >
(PID.TID 0000.0001) > &GUD_CDOM_PARAMS
(PID.TID 0000.0001) >  fracCDOM = 0.02,
(PID.TID 0000.0001) >  cdomdegrd= 3.8580e-08,
(PID.TID 0000.0001) >  CDOMbleach = 3.0000e-06,
(PID.TID 0000.0001) >  PARCDOM = 70.,
(PID.TID 0000.0001) >  R_NP_CDOM  = 16.,
(PID.TID 0000.0001) >  R_FeP_CDOM = 1.e-3,
(PID.TID 0000.0001) >  R_CP_CDOM  = 120.,
(PID.TID 0000.0001) >  CDOMcoeff = 21.,
(PID.TID 0000.0001) > /
(PID.TID 0000.0001) >########################
(PID.TID 0000.0001) > &GUD_RANDOM_PARAMS
(PID.TID 0000.0001) > /
(PID.TID 0000.0001) >########################
(PID.TID 0000.0001) > &GUD_TRAIT_PARAMS
(PID.TID 0000.0001) > grp_names= 'Pro', 'Syn', 'PicoEuk', 'Cocco', 'Diazo', 'Tricho', 'Diatom', 'Dino', 'Zoo',
(PID.TID 0000.0001) >#
(PID.TID 0000.0001) >#                        P  S pE  C Dz Tr  Dm  Dn  Z
(PID.TID 0000.0001) > grp_nplank(:)=          0, 0, 2, 0, 0, 0,  0,  0, 2,
(PID.TID 0000.0001) > grp_photo(:)=           1, 1, 1, 1, 1, 1,  1,  1, 0,
(PID.TID 0000.0001) > grp_pred(:)=            0, 0, 0, 0, 0, 0,  0,  1, 1
(PID.TID 0000.0001) > grp_prey(:)=            1, 1, 1, 1, 1, 1,  1,  1, 1,
(PID.TID 0000.0001) > grp_hasSi(:)=           0, 0, 0, 0, 0, 0,  1,  0, 0,
(PID.TID 0000.0001) > grp_hasPIC(:)=          0, 0, 0, 1, 0, 0,  0,  0, 0,
(PID.TID 0000.0001) > grp_DIAZO(:)=           0, 0, 0, 0, 1, 1,  0,  0, 0,
(PID.TID 0000.0001) > grp_useNH4(:)=          1, 1, 1, 1, 1, 1,  1,  1, 0,
(PID.TID 0000.0001) > grp_useNO2(:)=          1, 1, 1, 1, 1, 1,  1,  1, 0,
(PID.TID 0000.0001) > grp_useNO3(:)=          1, 1, 1, 1, 1, 1,  1,  1, 0,
(PID.TID 0000.0001) > grp_combNO(:)=          1, 1, 1, 1, 1, 1,  1,  1, 0,
(PID.TID 0000.0001) > grp_tempMort(:)=        0, 0, 0, 0, 0, 0, 0, 0,  0,
(PID.TID 0000.0001) > grp_tempMort2(:)=       0, 0, 0, 0, 0, 0, 0, 0,  0,
(PID.TID 0000.0001) > grp_aptype(:)=          4, 2, 1, 6, 8, 7, 5, 9, 11,
(PID.TID 0000.0001) >#
(PID.TID 0000.0001) > grp_Xmin(:)= 8*120E-20,
(PID.TID 0000.0001) >
(PID.TID 0000.0001) ># grp_mqyield(:)= 8*4E-5,
(PID.TID 0000.0001) ># grp_chl2cmax(:)=  6*.2, .3, .2,
(PID.TID 0000.0001) > grp_acclimtimescl(:)= 8*5.7870370370370370E-6,
(PID.TID 0000.0001) > logvolbase= -.9000,
(PID.TID 0000.0001) > logvolinc= .513,
(PID.TID 0000.0001) > logvol0ind(:)= 1, 2, 0, 5, 5, 9, 5, 7, 0,
(PID.TID 0000.0001) > grp_logvolind(1:2,3)= 4, 4,
(PID.TID 0000.0001) > grp_logvolind(1:2,9)= 8, 12,
(PID.TID 0000.0001) > a_biosink(:)= 8*6.951416635391563E-7, 0.,  ! .05*dm**.85
(PID.TID 0000.0001) > b_biosink(:)= 8*.2833333333333333, 0.,
(PID.TID 0000.0001) > a_vmax_DIC(1)= 0.90,
(PID.TID 0000.0001) > a_vmax_DIC(2)= 0.90,
(PID.TID 0000.0001) > a_vmax_DIC(3)= 0.90,
(PID.TID 0000.0001) > a_vmax_DIC(4)= 1.4,
(PID.TID 0000.0001) > a_vmax_DIC(5)= 0.95,
(PID.TID 0000.0001) > a_vmax_DIC(6)= 0.95,
(PID.TID 0000.0001) > a_vmax_DIC(7)= 3.9,
(PID.TID 0000.0001) > a_vmax_DIC(8)= 1.7,
(PID.TID 0000.0001) >
(PID.TID 0000.0001) > a_vmax_DIC_denom(:)= 8*86400.,
(PID.TID 0000.0001) > b_vmax_DIC(:)= 0.08, 0.08, 0.08, -0.08, -0.08, -0.08,-0.08, -0.08, 0.,
(PID.TID 0000.0001) >#
(PID.TID 0000.0001) > a_qmin_p = 8*0.005, 0.008,
(PID.TID 0000.0001) > a_qmax_p = 8*0.02,  0.01,
(PID.TID 0000.0001) > a_qmin_n=8*7.0000000000000007E-002  , 0.1 ,
(PID.TID 0000.0001) > b_qmin_n=8*-0.17000000000000001     , 0.0 ,
(PID.TID 0000.0001) > a_qmax_n=8*0.25000000000000000      , 0.2 ,
(PID.TID 0000.0001) > b_qmax_n=8*-0.13000000000000000     , 0.0 ,
(PID.TID 0000.0001) > a_qmin_fe = 3*1.50E-6, 2*6.00E-6, 3*1.50E-6, 1E-6,
(PID.TID 0000.0001) > a_qmax_fe = 8*8.0E-5,  2E-5,
(PID.TID 0000.0001) >#
(PID.TID 0000.0001) > gud_effective_ksat= T,
(PID.TID 0000.0001) > gud_select_kn_allom=2,
(PID.TID 0000.0001) >#
(PID.TID 0000.0001) > grp_ExportFracPreyPred(1:8,9)= 8*.8,
(PID.TID 0000.0001) > grp_R_ChlC(9)= 0.,
(PID.TID 0000.0001) > a_graz(9)= 3.4722000000000000E-05,  ! prowe values
(PID.TID 0000.0001) > b_graz(9)= -0.16,
(PID.TID 0000.0001) >#
(PID.TID 0000.0001) > grp_mort(:)= 8*6e-07, 2e-7  ! 1/7days, 1/50days
(PID.TID 0000.0001) > grp_mort2(:)= 8*6.e-7, 8.e-7,  ! 16*.6/120/day
(PID.TID 0000.0001) > grp_tempcoeff2= 8*.0003,
(PID.TID 0000.0001) > grp_R_PC(:)= 9*0.008333333333333333,
(PID.TID 0000.0001) > grp_R_FeC(:)= 4*0.008333333333333333E-3, 2*0.03333333333333333E-3, 2*0.008333333333333333E-3, 1*0.001333333333333333E-3
(PID.TID 0000.0001) > grp_R_NC(:)= 4*0.13333333333333333, 2*0.3333333333333333, 3*0.13333333333333333,
(PID.TID 0000.0001) > grp_R_SiC(:)= 6*0., 0.13333333333333333, 2*0.,
(PID.TID 0000.0001) > grp_R_PICPOC(:)= 3*0., .8, 5*0.,
(PID.TID 0000.0001) > a_kg(:)= 8*1.5, 1*1.5,
(PID.TID 0000.0001) > b_kg(:)= 9*0,
(PID.TID 0000.0001) >#
(PID.TID 0000.0001) > grp_ass_eff(:,:)=81*0.5,
(PID.TID 0000.0001) > /
(PID.TID 0000.0001) 
(PID.TID 0000.0001)  ===================================
(PID.TID 0000.0001) GCHEM_TR_REGISTER:  Start registering GCHEM tracers
(PID.TID 0000.0001) GCHEM_TR_REGISTER:  Numb. Trac & SepForc Trac:    0    0
(PID.TID 0000.0001) 
(PID.TID 0000.0001)  OFFLINE_READPARMS: opening data.off
(PID.TID 0000.0001)  OPEN_COPY_DATA_FILE: opening file data.off
(PID.TID 0000.0001) // =======================================================
(PID.TID 0000.0001) // Removing comments from "data.off"
(PID.TID 0000.0001) // =======================================================
(PID.TID 0000.0001)    1  &OFFLINE_PARM01
(PID.TID 0000.0001)    2   UvelFile= 'ECCO_Iter3.73daily/DDuvel/DDuvel',
(PID.TID 0000.0001)    3   VvelFile= 'ECCO_Iter3.73daily/DDvvel/DDvvel',
(PID.TID 0000.0001)    4   WvelFile= 'ECCO_Iter3.73daily/DDwvel/DDwvel',
(PID.TID 0000.0001)    5   GMwxFile= 'ECCO_Iter3.73daily/DGMkwx/DGMkwx',
(PID.TID 0000.0001)    6   GMwyFile= 'ECCO_Iter3.73daily/DGMkwy/DGMkwy',
(PID.TID 0000.0001)    7   GMwzFile= 'ECCO_Iter3.73daily/DGMkwz/DGMkwz',
(PID.TID 0000.0001)    8   SaltFile= 'ECCO_Iter3.73daily/DDsalt/DDsalt',
(PID.TID 0000.0001)    9   ThetFile= 'ECCO_Iter3.73daily/DDtheta/DDtheta',
(PID.TID 0000.0001)   10   SFluxFile='ECCO_Iter3.73daily/DFOSflux/DFOSflux',
(PID.TID 0000.0001)   11   KPP_DiffSFile='ECCO_Iter3.73daily/DKPPdiffs/DKPPdiffs',
(PID.TID 0000.0001)   12   KPP_ghatKFile='ECCO_Iter3.73daily/DKPPghatK/DKPPghatK',
(PID.TID 0000.0001)   13  &end
(PID.TID 0000.0001)   14
(PID.TID 0000.0001)   15  &OFFLINE_PARM02
(PID.TID 0000.0001)   16   offlineIter0=78912,
(PID.TID 0000.0001)   17   deltaToffline=3600.,
(PID.TID 0000.0001)   18   offlineForcingPeriod=86400.,
(PID.TID 0000.0001)   19   offlineForcingCycle=31104000.,
(PID.TID 0000.0001)   20   offlineLoadPrec=32,
(PID.TID 0000.0001)   21  &end
(PID.TID 0000.0001)   22
(PID.TID 0000.0001) // =======================================================
(PID.TID 0000.0001) // Parameter file "data.off"
(PID.TID 0000.0001) // =======================================================
(PID.TID 0000.0001) > &OFFLINE_PARM01
(PID.TID 0000.0001) >  UvelFile= 'ECCO_Iter3.73daily/DDuvel/DDuvel',
(PID.TID 0000.0001) >  VvelFile= 'ECCO_Iter3.73daily/DDvvel/DDvvel',
(PID.TID 0000.0001) >  WvelFile= 'ECCO_Iter3.73daily/DDwvel/DDwvel',
(PID.TID 0000.0001) >  GMwxFile= 'ECCO_Iter3.73daily/DGMkwx/DGMkwx',
(PID.TID 0000.0001) >  GMwyFile= 'ECCO_Iter3.73daily/DGMkwy/DGMkwy',
(PID.TID 0000.0001) >  GMwzFile= 'ECCO_Iter3.73daily/DGMkwz/DGMkwz',
(PID.TID 0000.0001) ># ConvFile= 'input_off/Convtave',
(PID.TID 0000.0001) >  SaltFile= 'ECCO_Iter3.73daily/DDsalt/DDsalt',
(PID.TID 0000.0001) >  ThetFile= 'ECCO_Iter3.73daily/DDtheta/DDtheta',
(PID.TID 0000.0001) >  SFluxFile='ECCO_Iter3.73daily/DFOSflux/DFOSflux',
(PID.TID 0000.0001) ># HFluxFile=' ',
(PID.TID 0000.0001) >  KPP_DiffSFile='ECCO_Iter3.73daily/DKPPdiffs/DKPPdiffs',
(PID.TID 0000.0001) >  KPP_ghatKFile='ECCO_Iter3.73daily/DKPPghatK/DKPPghatK',
(PID.TID 0000.0001) >### offGen2DFile='ECCO_Iter3.73daily/SIarea/SIarea',
(PID.TID 0000.0001) > &end
(PID.TID 0000.0001) >
(PID.TID 0000.0001) > &OFFLINE_PARM02
(PID.TID 0000.0001) >  offlineIter0=78912,
(PID.TID 0000.0001) >  deltaToffline=3600.,
(PID.TID 0000.0001) >  offlineForcingPeriod=86400.,
(PID.TID 0000.0001) >  offlineForcingCycle=31104000.,
(PID.TID 0000.0001) >  offlineLoadPrec=32,
(PID.TID 0000.0001) > &end
(PID.TID 0000.0001) >
(PID.TID 0000.0001) 
(PID.TID 0000.0001)  OFFLINE_READPARMS: finished reading data.off
(PID.TID 0000.0001)  DIAGNOSTICS_READPARMS: opening data.diagnostics
(PID.TID 0000.0001)  OPEN_COPY_DATA_FILE: opening file data.diagnostics
(PID.TID 0000.0001) // =======================================================
(PID.TID 0000.0001) // Removing comments from "data.diagnostics"
(PID.TID 0000.0001) // =======================================================
(PID.TID 0000.0001)    1  &diagnostics_list
(PID.TID 0000.0001)    2  dumpatlast= .TRUE.,
(PID.TID 0000.0001)    3   filename( 1) = '3d',
(PID.TID 0000.0001)    4   frequency(1) = 2592000.,
(PID.TID 0000.0001)    5   frequency(1) = 3600.,
(PID.TID 0000.0001)    6   fileflags(1) = 'D       ',
(PID.TID 0000.0001)    7   fields( 1,1) = 'TRAC01  ',
(PID.TID 0000.0001)    8   fields( 2,1) = 'TRAC02  ',
(PID.TID 0000.0001)    9   fields( 3,1) = 'TRAC03  ',
(PID.TID 0000.0001)   10   fields( 4,1) = 'TRAC04  ',
(PID.TID 0000.0001)   11   fields( 5,1) = 'TRAC05  ',
(PID.TID 0000.0001)   12   fields( 6,1) = 'TRAC06  ',
(PID.TID 0000.0001)   13   fields( 7,1) = 'TRAC07  ',
(PID.TID 0000.0001)   14   fields( 8,1) = 'TRAC08  ',
(PID.TID 0000.0001)   15   fields( 9,1) = 'TRAC09  ',
(PID.TID 0000.0001)   16   fields(10,1) = 'TRAC10  ',
(PID.TID 0000.0001)   17   fields(11,1) = 'TRAC11  ',
(PID.TID 0000.0001)   18   fields(12,1) = 'TRAC12  ',
(PID.TID 0000.0001)   19   fields(13,1) = 'TRAC13  ',
(PID.TID 0000.0001)   20   fields(14,1) = 'TRAC14  ',
(PID.TID 0000.0001)   21   fields(15,1) = 'TRAC15  ',
(PID.TID 0000.0001)   22   fields(16,1) = 'TRAC16  ',
(PID.TID 0000.0001)   23   fields(17,1) = 'TRAC17  ',
(PID.TID 0000.0001)   24   fields(18,1) = 'TRAC18  ',
(PID.TID 0000.0001)   25   fields(19,1) = 'TRAC19  ',
(PID.TID 0000.0001)   26   fields(20,1) = 'TRAC20  ',
(PID.TID 0000.0001)   27   fields(21,1) = 'TRAC21  ',
(PID.TID 0000.0001)   28   fields(22,1) = 'TRAC22  ',
(PID.TID 0000.0001)   29   fields(23,1) = 'TRAC23  ',
(PID.TID 0000.0001)   30   fields(24,1) = 'TRAC24  ',
(PID.TID 0000.0001)   31   fields(25,1) = 'TRAC25  ',
(PID.TID 0000.0001)   32   fields(26,1) = 'TRAC26  ',
(PID.TID 0000.0001)   33   fields(27,1) = 'TRAC27  ',
(PID.TID 0000.0001)   34   fields(28,1) = 'TRAC28  ',
(PID.TID 0000.0001)   35   fields(29,1) = 'TRAC29  ',
(PID.TID 0000.0001)   36   fields(30,1) = 'TRAC30  ',
(PID.TID 0000.0001)   37   fields(31,1) = 'TRAC31  ',
(PID.TID 0000.0001)   38   fields(32,1) = 'TRAC32  ',
(PID.TID 0000.0001)   39   fields(33,1) = 'TRAC33  ',
(PID.TID 0000.0001)   40   fields(34,1) = 'TRAC34  ',
(PID.TID 0000.0001)   41   fields(35,1) = 'TRAC35  ',
(PID.TID 0000.0001)   42   fields(36,1) = 'TRAC36  ',
(PID.TID 0000.0001)   43   fields(37,1) = 'PAR     ',
(PID.TID 0000.0001)   44   fields(38,1) = 'PP      ',
(PID.TID 0000.0001)   45   fields(39,1) = 'Nfix    ',
(PID.TID 0000.0001)   46   fields(40,1) = 'Denit   ',
(PID.TID 0000.0001)   47   fields(41,1) = 'pH      ',
(PID.TID 0000.0001)   48   fields(42,1) = 'pCO2    ',
(PID.TID 0000.0001)   49   fields(43,1) = 'PC0001  ',
(PID.TID 0000.0001)   50   fields(44,1) = 'PChl0001',
(PID.TID 0000.0001)   51   fields(45,1) = 'VN0001  ',
(PID.TID 0000.0001)   52   fields(46,1) = 'MODE0001',
(PID.TID 0000.0001)   53   fields(47,1) = 'Fe_C0001',
(PID.TID 0000.0001)   54   fields(48,1) = 'exQc0001',
(PID.TID 0000.0001)   55   fields(49,1) = 'PCg0001 ',
(PID.TID 0000.0001)   56   fields(50,1) = 'CChl0001',
(PID.TID 0000.0001)   57   fields(51,1) = 'NChl0001',
(PID.TID 0000.0001)   58   fields(52,1) = 'NPho0001',
(PID.TID 0000.0001)   59   fields(53,1) = 'NSyn0001',
(PID.TID 0000.0001)   60   fields(54,1) = 'NPrn0001',
(PID.TID 0000.0001)   61   fields(55,1) = 'NRNA0001',
(PID.TID 0000.0001)   62   fields(56,1) = 'NDNA0001',
(PID.TID 0000.0001)   63   fields(57,1) = 'NSTO0001',
(PID.TID 0000.0001)   64   fields(58,1) = 'NEXC0001',
(PID.TID 0000.0001)   65   fields(59,1) = 'PRNA0001',
(PID.TID 0000.0001)   66   fields(60,1) = 'PDNA0001',
(PID.TID 0000.0001)   67   fields(61,1) = 'PTHY0001',
(PID.TID 0000.0001)   68   fields(62,1) = 'PCON0001',
(PID.TID 0000.0001)   69   fields(63,1) = 'PSTO0001',
(PID.TID 0000.0001)   70   fields(64,1) = 'PEXC0001',
(PID.TID 0000.0001)   71   fields(65,1) = 'FPHO0001',
(PID.TID 0000.0001)   72   fields(66,1) = 'FSTO0001',
(PID.TID 0000.0001)   73   fields(67,1) = 'FEXC0001',
(PID.TID 0000.0001)   74   fields(68,1) = 'CChl0002',
(PID.TID 0000.0001)   75   fields(69,1) = 'NChl0002',
(PID.TID 0000.0001)   76   fields(70,1) = 'NPho0002',
(PID.TID 0000.0001)   77   fields(71,1) = 'NSyn0002',
(PID.TID 0000.0001)   78   fields(72,1) = 'NPrn0002',
(PID.TID 0000.0001)   79   fields(73,1) = 'NRNA0002',
(PID.TID 0000.0001)   80   fields(74,1) = 'NDNA0002',
(PID.TID 0000.0001)   81   fields(75,1) = 'NSTO0002',
(PID.TID 0000.0001)   82   fields(76,1) = 'NEXC0002',
(PID.TID 0000.0001)   83   fields(77,1) = 'PRNA0002',
(PID.TID 0000.0001)   84   fields(78,1) = 'PDNA0002',
(PID.TID 0000.0001)   85   fields(79,1) = 'PTHY0002',
(PID.TID 0000.0001)   86   fields(80,1) = 'PCON0002',
(PID.TID 0000.0001)   87   fields(81,1) = 'PSTO0002',
(PID.TID 0000.0001)   88   fields(82,1) = 'PEXC0002',
(PID.TID 0000.0001)   89   fields(83,1) = 'FPHO0002',
(PID.TID 0000.0001)   90   fields(84,1) = 'FSTO0002',
(PID.TID 0000.0001)   91   fields(85,1) = 'FEXC0002',
(PID.TID 0000.0001)   92   fields(86,1) = 'PC0002  ',
(PID.TID 0000.0001)   93   fields(87,1) = 'PChl0002',
(PID.TID 0000.0001)   94   fields(88,1) = 'VN0002  ',
(PID.TID 0000.0001)   95   fields(89,1) = 'MODE0002',
(PID.TID 0000.0001)   96   fields(90,1) = 'Fe_C0002',
(PID.TID 0000.0001)   97   fields(91,1) = 'exQc0002',
(PID.TID 0000.0001)   98   fields(92,1) = 'PCg0002 ',
(PID.TID 0000.0001)   99
(PID.TID 0000.0001)  100   filename( 6) = 'iops',
(PID.TID 0000.0001)  101   frequency(6) = 2592000.,
(PID.TID 0000.0001)  102   fields(  1,6) = 'a001    ',
(PID.TID 0000.0001)  103   fields(  2,6) = 'a002    ',
(PID.TID 0000.0001)  104   fields(  3,6) = 'a003    ',
(PID.TID 0000.0001)  105   fields(  4,6) = 'a004    ',
(PID.TID 0000.0001)  106   fields(  5,6) = 'a005    ',
(PID.TID 0000.0001)  107   fields(  6,6) = 'a006    ',
(PID.TID 0000.0001)  108   fields(  7,6) = 'a007    ',
(PID.TID 0000.0001)  109   fields(  8,6) = 'a008    ',
(PID.TID 0000.0001)  110   fields(  9,6) = 'a009    ',
(PID.TID 0000.0001)  111   fields( 10,6) = 'a010    ',
(PID.TID 0000.0001)  112   fields( 11,6) = 'a011    ',
(PID.TID 0000.0001)  113   fields( 12,6) = 'a012    ',
(PID.TID 0000.0001)  114   fields( 13,6) = 'a013    ',
(PID.TID 0000.0001)  115   fields( 14,6) = 'bt001   ',
(PID.TID 0000.0001)  116   fields( 15,6) = 'bt002   ',
(PID.TID 0000.0001)  117   fields( 16,6) = 'bt003   ',
(PID.TID 0000.0001)  118   fields( 17,6) = 'bt004   ',
(PID.TID 0000.0001)  119   fields( 18,6) = 'bt005   ',
(PID.TID 0000.0001)  120   fields( 19,6) = 'bt006   ',
(PID.TID 0000.0001)  121   fields( 20,6) = 'bt007   ',
(PID.TID 0000.0001)  122   fields( 21,6) = 'bt008   ',
(PID.TID 0000.0001)  123   fields( 22,6) = 'bt009   ',
(PID.TID 0000.0001)  124   fields( 23,6) = 'bt010   ',
(PID.TID 0000.0001)  125   fields( 24,6) = 'bt011   ',
(PID.TID 0000.0001)  126   fields( 25,6) = 'bt012   ',
(PID.TID 0000.0001)  127   fields( 26,6) = 'bt013   ',
(PID.TID 0000.0001)  128   fields( 27,6) = 'bb001   ',
(PID.TID 0000.0001)  129   fields( 28,6) = 'bb002   ',
(PID.TID 0000.0001)  130   fields( 29,6) = 'bb003   ',
(PID.TID 0000.0001)  131   fields( 30,6) = 'bb004   ',
(PID.TID 0000.0001)  132   fields( 31,6) = 'bb005   ',
(PID.TID 0000.0001)  133   fields( 62,6) = 'bb006   ',
(PID.TID 0000.0001)  134   fields( 33,6) = 'bb007   ',
(PID.TID 0000.0001)  135   fields( 34,6) = 'bb008   ',
(PID.TID 0000.0001)  136   fields( 35,6) = 'bb009   ',
(PID.TID 0000.0001)  137   fields( 36,6) = 'bb010   ',
(PID.TID 0000.0001)  138   fields( 37,6) = 'bb011   ',
(PID.TID 0000.0001)  139   fields( 38,6) = 'bb012   ',
(PID.TID 0000.0001)  140   fields( 39,6) = 'bb013   ',
(PID.TID 0000.0001)  141   fields( 40,6) = 'aCDOM001',
(PID.TID 0000.0001)  142   fields( 41,6) = 'aCDOM002',
(PID.TID 0000.0001)  143   fields( 42,6) = 'aCDOM003',
(PID.TID 0000.0001)  144   fields( 43,6) = 'aCDOM004',
(PID.TID 0000.0001)  145   fields( 44,6) = 'aCDOM005',
(PID.TID 0000.0001)  146   fields( 45,6) = 'aCDOM006',
(PID.TID 0000.0001)  147   fields( 46,6) = 'aCDOM007',
(PID.TID 0000.0001)  148   fields( 47,6) = 'aCDOM008',
(PID.TID 0000.0001)  149   fields( 48,6) = 'aCDOM009',
(PID.TID 0000.0001)  150   fields( 49,6) = 'aCDOM010',
(PID.TID 0000.0001)  151   fields( 50,6) = 'aCDOM011',
(PID.TID 0000.0001)  152   fields( 51,6) = 'aCDOM012',
(PID.TID 0000.0001)  153   fields( 52,6) = 'aCDOM013',
(PID.TID 0000.0001)  154   filename( 7) = 'par',
(PID.TID 0000.0001)  155   frequency(7) = 2592000.,
(PID.TID 0000.0001)  156   fields(  1,7) = 'Ed001   ',
(PID.TID 0000.0001)  157   fields(  2,7) = 'Ed002   ',
(PID.TID 0000.0001)  158   fields(  3,7) = 'Ed003   ',
(PID.TID 0000.0001)  159   fields(  4,7) = 'Ed004   ',
(PID.TID 0000.0001)  160   fields(  5,7) = 'Ed005   ',
(PID.TID 0000.0001)  161   fields(  6,7) = 'Ed006   ',
(PID.TID 0000.0001)  162   fields(  7,7) = 'Ed007   ',
(PID.TID 0000.0001)  163   fields(  8,7) = 'Ed008   ',
(PID.TID 0000.0001)  164   fields(  9,7) = 'Ed009   ',
(PID.TID 0000.0001)  165   fields( 10,7) = 'Ed010   ',
(PID.TID 0000.0001)  166   fields( 11,7) = 'Ed011   ',
(PID.TID 0000.0001)  167   fields( 12,7) = 'Ed012   ',
(PID.TID 0000.0001)  168   fields( 13,7) = 'Ed013   ',
(PID.TID 0000.0001)  169   fields( 14,7) = 'Es001   ',
(PID.TID 0000.0001)  170   fields( 15,7) = 'Es002   ',
(PID.TID 0000.0001)  171   fields( 16,7) = 'Es003   ',
(PID.TID 0000.0001)  172   fields( 17,7) = 'Es004   ',
(PID.TID 0000.0001)  173   fields( 18,7) = 'Es005   ',
(PID.TID 0000.0001)  174   fields( 19,7) = 'Es006   ',
(PID.TID 0000.0001)  175   fields( 20,7) = 'Es007   ',
(PID.TID 0000.0001)  176   fields( 21,7) = 'Es008   ',
(PID.TID 0000.0001)  177   fields( 22,7) = 'Es009   ',
(PID.TID 0000.0001)  178   fields( 23,7) = 'Es010   ',
(PID.TID 0000.0001)  179   fields( 24,7) = 'Es011   ',
(PID.TID 0000.0001)  180   fields( 25,7) = 'Es012   ',
(PID.TID 0000.0001)  181   fields( 26,7) = 'Es013   ',
(PID.TID 0000.0001)  182   fields( 27,7) = 'Eu001   ',
(PID.TID 0000.0001)  183   fields( 28,7) = 'Eu002   ',
(PID.TID 0000.0001)  184   fields( 29,7) = 'Eu003   ',
(PID.TID 0000.0001)  185   fields( 30,7) = 'Eu004   ',
(PID.TID 0000.0001)  186   fields( 31,7) = 'Eu005   ',
(PID.TID 0000.0001)  187   fields( 32,7) = 'Eu006   ',
(PID.TID 0000.0001)  188   fields( 33,7) = 'Eu007   ',
(PID.TID 0000.0001)  189   fields( 34,7) = 'Eu008   ',
(PID.TID 0000.0001)  190   fields( 35,7) = 'Eu009   ',
(PID.TID 0000.0001)  191   fields( 36,7) = 'Eu010   ',
(PID.TID 0000.0001)  192   fields( 37,7) = 'Eu011   ',
(PID.TID 0000.0001)  193   fields( 38,7) = 'Eu012   ',
(PID.TID 0000.0001)  194   fields( 39,7) = 'Eu013   ',
(PID.TID 0000.0001)  195   fields( 40,7) = 'PAR001  ',
(PID.TID 0000.0001)  196   fields( 41,7) = 'PAR002  ',
(PID.TID 0000.0001)  197   fields( 42,7) = 'PAR003  ',
(PID.TID 0000.0001)  198   fields( 43,7) = 'PAR004  ',
(PID.TID 0000.0001)  199   fields( 44,7) = 'PAR005  ',
(PID.TID 0000.0001)  200   fields( 45,7) = 'PAR006  ',
(PID.TID 0000.0001)  201   fields( 46,7) = 'PAR007  ',
(PID.TID 0000.0001)  202   fields( 47,7) = 'PAR008  ',
(PID.TID 0000.0001)  203   fields( 48,7) = 'PAR009  ',
(PID.TID 0000.0001)  204   fields( 49,7) = 'PAR010  ',
(PID.TID 0000.0001)  205   fields( 50,7) = 'PAR011  ',
(PID.TID 0000.0001)  206   fields( 51,7) = 'PAR012  ',
(PID.TID 0000.0001)  207   fields( 52,7) = 'PAR013  ',
(PID.TID 0000.0001)  208   filename( 8) = '2d',
(PID.TID 0000.0001)  209   frequency(8) = 2592000.,
(PID.TID 0000.0001)  210   fields( 1,8) = 'fluxCO2 ',
(PID.TID 0000.0001)  211   fields( 2,8) = 'gDICsurf',
(PID.TID 0000.0001)  212   fields( 3,8) = 'gALKsurf',
(PID.TID 0000.0001)  213   fields( 4,8) = 'gO2surf ',
(PID.TID 0000.0001)  214  &
(PID.TID 0000.0001)  215
(PID.TID 0000.0001)  216  &DIAG_STATIS_PARMS
(PID.TID 0000.0001)  217  diagst_mnc=.FALSE.,
(PID.TID 0000.0001)  218      stat_freq(1:3)= 3*10800.,
(PID.TID 0000.0001)  219     stat_phase(1:3)= 3*0.,
(PID.TID 0000.0001)  220  stat_fields(1,1)= 'PP      '
(PID.TID 0000.0001)  221  stat_fields(1,2)= 'Nfix    '
(PID.TID 0000.0001)  222  stat_fields(1,3)= 'Denit   '
(PID.TID 0000.0001)  223     stat_fname(1)= 'statsPP',
(PID.TID 0000.0001)  224     stat_fname(2)= 'statsNfix',
(PID.TID 0000.0001)  225     stat_fname(3)= 'statsDenit',
(PID.TID 0000.0001)  226  &
(PID.TID 0000.0001) // =======================================================
(PID.TID 0000.0001) // Parameter file "data.diagnostics"
(PID.TID 0000.0001) // =======================================================
(PID.TID 0000.0001) ># Gud diagnostics
(PID.TID 0000.0001) ># ==================
(PID.TID 0000.0001) ># PAR                 Photosynthetically active radiation
(PID.TID 0000.0001) ># PP                  Primary production
(PID.TID 0000.0001) ># Nfix                Nitrogen fixation
(PID.TID 0000.0001) ># Rstar01             Rstar^PO4 of Phy01
(PID.TID 0000.0001) ># Diver1              # Phy species over absolute threshold'
(PID.TID 0000.0001) ># Diver2              # Phy species over threshold for proportion of biomass'
(PID.TID 0000.0001) ># Diver3              # Phy species constituting bulk of biomass'
(PID.TID 0000.0001) ># Diver4              # Phy species over threshold for ratio to maximum species'
(PID.TID 0000.0001) >#
(PID.TID 0000.0001) > &diagnostics_list
(PID.TID 0000.0001) > dumpatlast= .TRUE.,
(PID.TID 0000.0001) >#
(PID.TID 0000.0001) >  filename( 1) = '3d',
(PID.TID 0000.0001) >  frequency(1) = 2592000.,
(PID.TID 0000.0001) >  frequency(1) = 3600.,
(PID.TID 0000.0001) >  fileflags(1) = 'D       ',
(PID.TID 0000.0001) ># frequency(1) = 31104000.,
(PID.TID 0000.0001) >  fields( 1,1) = 'TRAC01  ',
(PID.TID 0000.0001) >  fields( 2,1) = 'TRAC02  ',
(PID.TID 0000.0001) >  fields( 3,1) = 'TRAC03  ',
(PID.TID 0000.0001) >  fields( 4,1) = 'TRAC04  ',
(PID.TID 0000.0001) >  fields( 5,1) = 'TRAC05  ',
(PID.TID 0000.0001) >  fields( 6,1) = 'TRAC06  ',
(PID.TID 0000.0001) >  fields( 7,1) = 'TRAC07  ',
(PID.TID 0000.0001) >  fields( 8,1) = 'TRAC08  ',
(PID.TID 0000.0001) >  fields( 9,1) = 'TRAC09  ',
(PID.TID 0000.0001) >  fields(10,1) = 'TRAC10  ',
(PID.TID 0000.0001) >  fields(11,1) = 'TRAC11  ',
(PID.TID 0000.0001) >  fields(12,1) = 'TRAC12  ',
(PID.TID 0000.0001) >  fields(13,1) = 'TRAC13  ',
(PID.TID 0000.0001) >  fields(14,1) = 'TRAC14  ',
(PID.TID 0000.0001) >  fields(15,1) = 'TRAC15  ',
(PID.TID 0000.0001) >  fields(16,1) = 'TRAC16  ',
(PID.TID 0000.0001) >  fields(17,1) = 'TRAC17  ',
(PID.TID 0000.0001) >  fields(18,1) = 'TRAC18  ',
(PID.TID 0000.0001) >  fields(19,1) = 'TRAC19  ',
(PID.TID 0000.0001) >  fields(20,1) = 'TRAC20  ',
(PID.TID 0000.0001) >  fields(21,1) = 'TRAC21  ',
(PID.TID 0000.0001) >  fields(22,1) = 'TRAC22  ',
(PID.TID 0000.0001) >  fields(23,1) = 'TRAC23  ',
(PID.TID 0000.0001) >  fields(24,1) = 'TRAC24  ',
(PID.TID 0000.0001) >  fields(25,1) = 'TRAC25  ',
(PID.TID 0000.0001) >  fields(26,1) = 'TRAC26  ',
(PID.TID 0000.0001) >  fields(27,1) = 'TRAC27  ',
(PID.TID 0000.0001) >  fields(28,1) = 'TRAC28  ',
(PID.TID 0000.0001) >  fields(29,1) = 'TRAC29  ',
(PID.TID 0000.0001) >  fields(30,1) = 'TRAC30  ',
(PID.TID 0000.0001) >  fields(31,1) = 'TRAC31  ',
(PID.TID 0000.0001) >  fields(32,1) = 'TRAC32  ',
(PID.TID 0000.0001) >  fields(33,1) = 'TRAC33  ',
(PID.TID 0000.0001) >  fields(34,1) = 'TRAC34  ',
(PID.TID 0000.0001) >  fields(35,1) = 'TRAC35  ',
(PID.TID 0000.0001) >  fields(36,1) = 'TRAC36  ',
(PID.TID 0000.0001) >  fields(37,1) = 'PAR     ',
(PID.TID 0000.0001) >  fields(38,1) = 'PP      ',
(PID.TID 0000.0001) >  fields(39,1) = 'Nfix    ',
(PID.TID 0000.0001) >  fields(40,1) = 'Denit   ',
(PID.TID 0000.0001) >  fields(41,1) = 'pH      ',
(PID.TID 0000.0001) >  fields(42,1) = 'pCO2    ',
(PID.TID 0000.0001) >  fields(43,1) = 'PC0001  ',
(PID.TID 0000.0001) >  fields(44,1) = 'PChl0001',
(PID.TID 0000.0001) >  fields(45,1) = 'VN0001  ',
(PID.TID 0000.0001) >  fields(46,1) = 'MODE0001',
(PID.TID 0000.0001) >  fields(47,1) = 'Fe_C0001',
(PID.TID 0000.0001) >  fields(48,1) = 'exQc0001',
(PID.TID 0000.0001) >  fields(49,1) = 'PCg0001 ',
(PID.TID 0000.0001) >  fields(50,1) = 'CChl0001',
(PID.TID 0000.0001) >  fields(51,1) = 'NChl0001',
(PID.TID 0000.0001) >  fields(52,1) = 'NPho0001',
(PID.TID 0000.0001) >  fields(53,1) = 'NSyn0001',
(PID.TID 0000.0001) >  fields(54,1) = 'NPrn0001',
(PID.TID 0000.0001) >  fields(55,1) = 'NRNA0001',
(PID.TID 0000.0001) >  fields(56,1) = 'NDNA0001',
(PID.TID 0000.0001) >  fields(57,1) = 'NSTO0001',
(PID.TID 0000.0001) >  fields(58,1) = 'NEXC0001',
(PID.TID 0000.0001) >  fields(59,1) = 'PRNA0001',
(PID.TID 0000.0001) >  fields(60,1) = 'PDNA0001',
(PID.TID 0000.0001) >  fields(61,1) = 'PTHY0001',
(PID.TID 0000.0001) >  fields(62,1) = 'PCON0001',
(PID.TID 0000.0001) >  fields(63,1) = 'PSTO0001',
(PID.TID 0000.0001) >  fields(64,1) = 'PEXC0001',
(PID.TID 0000.0001) >  fields(65,1) = 'FPHO0001',
(PID.TID 0000.0001) >  fields(66,1) = 'FSTO0001',
(PID.TID 0000.0001) >  fields(67,1) = 'FEXC0001',
(PID.TID 0000.0001) >  fields(68,1) = 'CChl0002',
(PID.TID 0000.0001) >  fields(69,1) = 'NChl0002',
(PID.TID 0000.0001) >  fields(70,1) = 'NPho0002',
(PID.TID 0000.0001) >  fields(71,1) = 'NSyn0002',
(PID.TID 0000.0001) >  fields(72,1) = 'NPrn0002',
(PID.TID 0000.0001) >  fields(73,1) = 'NRNA0002',
(PID.TID 0000.0001) >  fields(74,1) = 'NDNA0002',
(PID.TID 0000.0001) >  fields(75,1) = 'NSTO0002',
(PID.TID 0000.0001) >  fields(76,1) = 'NEXC0002',
(PID.TID 0000.0001) >  fields(77,1) = 'PRNA0002',
(PID.TID 0000.0001) >  fields(78,1) = 'PDNA0002',
(PID.TID 0000.0001) >  fields(79,1) = 'PTHY0002',
(PID.TID 0000.0001) >  fields(80,1) = 'PCON0002',
(PID.TID 0000.0001) >  fields(81,1) = 'PSTO0002',
(PID.TID 0000.0001) >  fields(82,1) = 'PEXC0002',
(PID.TID 0000.0001) >  fields(83,1) = 'FPHO0002',
(PID.TID 0000.0001) >  fields(84,1) = 'FSTO0002',
(PID.TID 0000.0001) >  fields(85,1) = 'FEXC0002',
(PID.TID 0000.0001) >  fields(86,1) = 'PC0002  ',
(PID.TID 0000.0001) >  fields(87,1) = 'PChl0002',
(PID.TID 0000.0001) >  fields(88,1) = 'VN0002  ',
(PID.TID 0000.0001) >  fields(89,1) = 'MODE0002',
(PID.TID 0000.0001) >  fields(90,1) = 'Fe_C0002',
(PID.TID 0000.0001) >  fields(91,1) = 'exQc0002',
(PID.TID 0000.0001) >  fields(92,1) = 'PCg0002 ',
(PID.TID 0000.0001) >
(PID.TID 0000.0001) >#
(PID.TID 0000.0001) >#
(PID.TID 0000.0001) >  filename( 6) = 'iops',
(PID.TID 0000.0001) >  frequency(6) = 2592000.,
(PID.TID 0000.0001) ># frequency(6) = 31104000.,
(PID.TID 0000.0001) >  fields(  1,6) = 'a001    ',
(PID.TID 0000.0001) >  fields(  2,6) = 'a002    ',
(PID.TID 0000.0001) >  fields(  3,6) = 'a003    ',
(PID.TID 0000.0001) >  fields(  4,6) = 'a004    ',
(PID.TID 0000.0001) >  fields(  5,6) = 'a005    ',
(PID.TID 0000.0001) >  fields(  6,6) = 'a006    ',
(PID.TID 0000.0001) >  fields(  7,6) = 'a007    ',
(PID.TID 0000.0001) >  fields(  8,6) = 'a008    ',
(PID.TID 0000.0001) >  fields(  9,6) = 'a009    ',
(PID.TID 0000.0001) >  fields( 10,6) = 'a010    ',
(PID.TID 0000.0001) >  fields( 11,6) = 'a011    ',
(PID.TID 0000.0001) >  fields( 12,6) = 'a012    ',
(PID.TID 0000.0001) >  fields( 13,6) = 'a013    ',
(PID.TID 0000.0001) >  fields( 14,6) = 'bt001   ',
(PID.TID 0000.0001) >  fields( 15,6) = 'bt002   ',
(PID.TID 0000.0001) >  fields( 16,6) = 'bt003   ',
(PID.TID 0000.0001) >  fields( 17,6) = 'bt004   ',
(PID.TID 0000.0001) >  fields( 18,6) = 'bt005   ',
(PID.TID 0000.0001) >  fields( 19,6) = 'bt006   ',
(PID.TID 0000.0001) >  fields( 20,6) = 'bt007   ',
(PID.TID 0000.0001) >  fields( 21,6) = 'bt008   ',
(PID.TID 0000.0001) >  fields( 22,6) = 'bt009   ',
(PID.TID 0000.0001) >  fields( 23,6) = 'bt010   ',
(PID.TID 0000.0001) >  fields( 24,6) = 'bt011   ',
(PID.TID 0000.0001) >  fields( 25,6) = 'bt012   ',
(PID.TID 0000.0001) >  fields( 26,6) = 'bt013   ',
(PID.TID 0000.0001) >  fields( 27,6) = 'bb001   ',
(PID.TID 0000.0001) >  fields( 28,6) = 'bb002   ',
(PID.TID 0000.0001) >  fields( 29,6) = 'bb003   ',
(PID.TID 0000.0001) >  fields( 30,6) = 'bb004   ',
(PID.TID 0000.0001) >  fields( 31,6) = 'bb005   ',
(PID.TID 0000.0001) >  fields( 62,6) = 'bb006   ',
(PID.TID 0000.0001) >  fields( 33,6) = 'bb007   ',
(PID.TID 0000.0001) >  fields( 34,6) = 'bb008   ',
(PID.TID 0000.0001) >  fields( 35,6) = 'bb009   ',
(PID.TID 0000.0001) >  fields( 36,6) = 'bb010   ',
(PID.TID 0000.0001) >  fields( 37,6) = 'bb011   ',
(PID.TID 0000.0001) >  fields( 38,6) = 'bb012   ',
(PID.TID 0000.0001) >  fields( 39,6) = 'bb013   ',
(PID.TID 0000.0001) >  fields( 40,6) = 'aCDOM001',
(PID.TID 0000.0001) >  fields( 41,6) = 'aCDOM002',
(PID.TID 0000.0001) >  fields( 42,6) = 'aCDOM003',
(PID.TID 0000.0001) >  fields( 43,6) = 'aCDOM004',
(PID.TID 0000.0001) >  fields( 44,6) = 'aCDOM005',
(PID.TID 0000.0001) >  fields( 45,6) = 'aCDOM006',
(PID.TID 0000.0001) >  fields( 46,6) = 'aCDOM007',
(PID.TID 0000.0001) >  fields( 47,6) = 'aCDOM008',
(PID.TID 0000.0001) >  fields( 48,6) = 'aCDOM009',
(PID.TID 0000.0001) >  fields( 49,6) = 'aCDOM010',
(PID.TID 0000.0001) >  fields( 50,6) = 'aCDOM011',
(PID.TID 0000.0001) >  fields( 51,6) = 'aCDOM012',
(PID.TID 0000.0001) >  fields( 52,6) = 'aCDOM013',
(PID.TID 0000.0001) >#
(PID.TID 0000.0001) >  filename( 7) = 'par',
(PID.TID 0000.0001) >  frequency(7) = 2592000.,
(PID.TID 0000.0001) ># frequency(7) = 31104000.,
(PID.TID 0000.0001) ># levels(1:10,7) = 1, 2, 3, 4, 5, 6, 7, 8, 9, 10,
(PID.TID 0000.0001) >  fields(  1,7) = 'Ed001   ',
(PID.TID 0000.0001) >  fields(  2,7) = 'Ed002   ',
(PID.TID 0000.0001) >  fields(  3,7) = 'Ed003   ',
(PID.TID 0000.0001) >  fields(  4,7) = 'Ed004   ',
(PID.TID 0000.0001) >  fields(  5,7) = 'Ed005   ',
(PID.TID 0000.0001) >  fields(  6,7) = 'Ed006   ',
(PID.TID 0000.0001) >  fields(  7,7) = 'Ed007   ',
(PID.TID 0000.0001) >  fields(  8,7) = 'Ed008   ',
(PID.TID 0000.0001) >  fields(  9,7) = 'Ed009   ',
(PID.TID 0000.0001) >  fields( 10,7) = 'Ed010   ',
(PID.TID 0000.0001) >  fields( 11,7) = 'Ed011   ',
(PID.TID 0000.0001) >  fields( 12,7) = 'Ed012   ',
(PID.TID 0000.0001) >  fields( 13,7) = 'Ed013   ',
(PID.TID 0000.0001) >  fields( 14,7) = 'Es001   ',
(PID.TID 0000.0001) >  fields( 15,7) = 'Es002   ',
(PID.TID 0000.0001) >  fields( 16,7) = 'Es003   ',
(PID.TID 0000.0001) >  fields( 17,7) = 'Es004   ',
(PID.TID 0000.0001) >  fields( 18,7) = 'Es005   ',
(PID.TID 0000.0001) >  fields( 19,7) = 'Es006   ',
(PID.TID 0000.0001) >  fields( 20,7) = 'Es007   ',
(PID.TID 0000.0001) >  fields( 21,7) = 'Es008   ',
(PID.TID 0000.0001) >  fields( 22,7) = 'Es009   ',
(PID.TID 0000.0001) >  fields( 23,7) = 'Es010   ',
(PID.TID 0000.0001) >  fields( 24,7) = 'Es011   ',
(PID.TID 0000.0001) >  fields( 25,7) = 'Es012   ',
(PID.TID 0000.0001) >  fields( 26,7) = 'Es013   ',
(PID.TID 0000.0001) >  fields( 27,7) = 'Eu001   ',
(PID.TID 0000.0001) >  fields( 28,7) = 'Eu002   ',
(PID.TID 0000.0001) >  fields( 29,7) = 'Eu003   ',
(PID.TID 0000.0001) >  fields( 30,7) = 'Eu004   ',
(PID.TID 0000.0001) >  fields( 31,7) = 'Eu005   ',
(PID.TID 0000.0001) >  fields( 32,7) = 'Eu006   ',
(PID.TID 0000.0001) >  fields( 33,7) = 'Eu007   ',
(PID.TID 0000.0001) >  fields( 34,7) = 'Eu008   ',
(PID.TID 0000.0001) >  fields( 35,7) = 'Eu009   ',
(PID.TID 0000.0001) >  fields( 36,7) = 'Eu010   ',
(PID.TID 0000.0001) >  fields( 37,7) = 'Eu011   ',
(PID.TID 0000.0001) >  fields( 38,7) = 'Eu012   ',
(PID.TID 0000.0001) >  fields( 39,7) = 'Eu013   ',
(PID.TID 0000.0001) >  fields( 40,7) = 'PAR001  ',
(PID.TID 0000.0001) >  fields( 41,7) = 'PAR002  ',
(PID.TID 0000.0001) >  fields( 42,7) = 'PAR003  ',
(PID.TID 0000.0001) >  fields( 43,7) = 'PAR004  ',
(PID.TID 0000.0001) >  fields( 44,7) = 'PAR005  ',
(PID.TID 0000.0001) >  fields( 45,7) = 'PAR006  ',
(PID.TID 0000.0001) >  fields( 46,7) = 'PAR007  ',
(PID.TID 0000.0001) >  fields( 47,7) = 'PAR008  ',
(PID.TID 0000.0001) >  fields( 48,7) = 'PAR009  ',
(PID.TID 0000.0001) >  fields( 49,7) = 'PAR010  ',
(PID.TID 0000.0001) >  fields( 50,7) = 'PAR011  ',
(PID.TID 0000.0001) >  fields( 51,7) = 'PAR012  ',
(PID.TID 0000.0001) >  fields( 52,7) = 'PAR013  ',
(PID.TID 0000.0001) >#
(PID.TID 0000.0001) >  filename( 8) = '2d',
(PID.TID 0000.0001) >  frequency(8) = 2592000.,
(PID.TID 0000.0001) ># frequency(8) = 31104000.,
(PID.TID 0000.0001) >  fields( 1,8) = 'fluxCO2 ',
(PID.TID 0000.0001) >  fields( 2,8) = 'gDICsurf',
(PID.TID 0000.0001) >  fields( 3,8) = 'gALKsurf',
(PID.TID 0000.0001) >  fields( 4,8) = 'gO2surf ',
(PID.TID 0000.0001) >#
(PID.TID 0000.0001) > &
(PID.TID 0000.0001) >
(PID.TID 0000.0001) ># Parameter for Diagnostics of per level statistics:
(PID.TID 0000.0001) >#-----------------
(PID.TID 0000.0001) ># for each output-stream:
(PID.TID 0000.0001) >#  stat_fname(n) : prefix of the output file name (only 8.c long) for
(PID.TID 0000.0001) >#outp.stream n
(PID.TID 0000.0001) >#  stat_freq(n):< 0 : write snap-shot output every |stat_freq| seconds
(PID.TID 0000.0001) >#               > 0 : write time-average output every stat_freq seconds
(PID.TID 0000.0001) >#  stat_phase(n)    : write at time = stat_phase + multiple of |stat_freq|
(PID.TID 0000.0001) >#  stat_region(:,n) : list of "regions" (default: 1 region only=global)
(PID.TID 0000.0001) >#  stat_fields(:,n) : list of diagnostics fields (8.c) (see
(PID.TID 0000.0001) >#"available_diagnostics.log"
(PID.TID 0000.0001) >#                 file for the list of all available diag. in this particular
(PID.TID 0000.0001) >#config)
(PID.TID 0000.0001) >#-----------------
(PID.TID 0000.0001) > &DIAG_STATIS_PARMS
(PID.TID 0000.0001) > diagst_mnc=.FALSE.,
(PID.TID 0000.0001) >     stat_freq(1:3)= 3*10800.,
(PID.TID 0000.0001) >    stat_phase(1:3)= 3*0.,
(PID.TID 0000.0001) > stat_fields(1,1)= 'PP      '
(PID.TID 0000.0001) > stat_fields(1,2)= 'Nfix    '
(PID.TID 0000.0001) > stat_fields(1,3)= 'Denit   '
(PID.TID 0000.0001) >    stat_fname(1)= 'statsPP',
(PID.TID 0000.0001) >    stat_fname(2)= 'statsNfix',
(PID.TID 0000.0001) >    stat_fname(3)= 'statsDenit',
(PID.TID 0000.0001) > &
(PID.TID 0000.0001) 
(PID.TID 0000.0001) S/R DIAGNOSTICS_READPARMS, read namelist "diagnostics_list": start
(PID.TID 0000.0001) S/R DIAGNOSTICS_READPARMS, read namelist "diagnostics_list": OK
(PID.TID 0000.0001) S/R DIAGNOSTICS_READPARMS, read namelist "DIAG_STATIS_PARMS": start
(PID.TID 0000.0001) S/R DIAGNOSTICS_READPARMS, read namelist "DIAG_STATIS_PARMS": OK
(PID.TID 0000.0001)  DIAGNOSTICS_READPARMS: global parameter summary:
(PID.TID 0000.0001)  dumpAtLast = /* always write time-ave diags at the end */
(PID.TID 0000.0001)                   T
(PID.TID 0000.0001)     ;
(PID.TID 0000.0001)  diag_mnc =   /* write NetCDF output files */
(PID.TID 0000.0001)                   T
(PID.TID 0000.0001)     ;
(PID.TID 0000.0001)  useMissingValue = /* put MissingValue where mask = 0 */
(PID.TID 0000.0001)                   F
(PID.TID 0000.0001)     ;
(PID.TID 0000.0001)  diagCG_maxIters = /* max number of iters in diag_cg2d */
(PID.TID 0000.0001)                     300
(PID.TID 0000.0001)     ;
(PID.TID 0000.0001)  diagCG_resTarget = /* residual target for diag_cg2d */
(PID.TID 0000.0001)                 1.000000000000000E-07
(PID.TID 0000.0001)     ;
(PID.TID 0000.0001)  diagCG_pcOffDFac = /* preconditioner off-diagonal factor */
(PID.TID 0000.0001)                 9.611687812379854E-01
(PID.TID 0000.0001)     ;
(PID.TID 0000.0001) -----------------------------------------------------
(PID.TID 0000.0001)  DIAGNOSTICS_READPARMS: active diagnostics summary:
(PID.TID 0000.0001) -----------------------------------------------------
(PID.TID 0000.0001) Creating Output Stream: 3d
(PID.TID 0000.0001) Output Frequency:       3600.000000 ; Phase:           0.000000
(PID.TID 0000.0001)  Averaging Freq.:       3600.000000 , Phase:           0.000000 , Cycle:   1
(PID.TID 0000.0001)  missing value: -9.990000000000E+02 ; F-Flags="D       "
(PID.TID 0000.0001)  Levels:    will be set later
(PID.TID 0000.0001)  Fields:    TRAC01   TRAC02   TRAC03   TRAC04   TRAC05   TRAC06   TRAC07   TRAC08   TRAC09   TRAC10
(PID.TID 0000.0001)  Fields:    TRAC11   TRAC12   TRAC13   TRAC14   TRAC15   TRAC16   TRAC17   TRAC18   TRAC19   TRAC20
(PID.TID 0000.0001)  Fields:    TRAC21   TRAC22   TRAC23   TRAC24   TRAC25   TRAC26   TRAC27   TRAC28   TRAC29   TRAC30
(PID.TID 0000.0001)  Fields:    TRAC31   TRAC32   TRAC33   TRAC34   TRAC35   TRAC36   PAR      PP       Nfix     Denit
(PID.TID 0000.0001)  Fields:    pH       pCO2     PC0001   PChl0001 VN0001   MODE0001 Fe_C0001 exQc0001 PCg0001  CChl0001
(PID.TID 0000.0001)  Fields:    NChl0001 NPho0001 NSyn0001 NPrn0001 NRNA0001 NDNA0001 NSTO0001 NEXC0001 PRNA0001 PDNA0001
(PID.TID 0000.0001)  Fields:    PTHY0001 PCON0001 PSTO0001 PEXC0001 FPHO0001 FSTO0001 FEXC0001 CChl0002 NChl0002 NPho0002
(PID.TID 0000.0001)  Fields:    NSyn0002 NPrn0002 NRNA0002 NDNA0002 NSTO0002 NEXC0002 PRNA0002 PDNA0002 PTHY0002 PCON0002
(PID.TID 0000.0001)  Fields:    PSTO0002 PEXC0002 FPHO0002 FSTO0002 FEXC0002 PC0002   PChl0002 VN0002   MODE0002 Fe_C0002
(PID.TID 0000.0001)  Fields:    exQc0002 PCg0002
(PID.TID 0000.0001) Creating Output Stream: iops
(PID.TID 0000.0001) Output Frequency:    2592000.000000 ; Phase:           0.000000
(PID.TID 0000.0001)  Averaging Freq.:    2592000.000000 , Phase:           0.000000 , Cycle:   1
(PID.TID 0000.0001)  missing value: -9.990000000000E+02
(PID.TID 0000.0001)  Levels:    will be set later
(PID.TID 0000.0001)  Fields:    a001     a002     a003     a004     a005     a006     a007     a008     a009     a010
(PID.TID 0000.0001)  Fields:    a011     a012     a013     bt001    bt002    bt003    bt004    bt005    bt006    bt007
(PID.TID 0000.0001)  Fields:    bt008    bt009    bt010    bt011    bt012    bt013    bb001    bb002    bb003    bb004
(PID.TID 0000.0001)  Fields:    bb005    bb007    bb008    bb009    bb010    bb011    bb012    bb013    aCDOM001 aCDOM002
(PID.TID 0000.0001)  Fields:    aCDOM003 aCDOM004 aCDOM005 aCDOM006 aCDOM007 aCDOM008 aCDOM009 aCDOM010 aCDOM011 aCDOM012
(PID.TID 0000.0001)  Fields:    aCDOM013 bb006
(PID.TID 0000.0001) Creating Output Stream: par
(PID.TID 0000.0001) Output Frequency:    2592000.000000 ; Phase:           0.000000
(PID.TID 0000.0001)  Averaging Freq.:    2592000.000000 , Phase:           0.000000 , Cycle:   1
(PID.TID 0000.0001)  missing value: -9.990000000000E+02
(PID.TID 0000.0001)  Levels:    will be set later
(PID.TID 0000.0001)  Fields:    Ed001    Ed002    Ed003    Ed004    Ed005    Ed006    Ed007    Ed008    Ed009    Ed010
(PID.TID 0000.0001)  Fields:    Ed011    Ed012    Ed013    Es001    Es002    Es003    Es004    Es005    Es006    Es007
(PID.TID 0000.0001)  Fields:    Es008    Es009    Es010    Es011    Es012    Es013    Eu001    Eu002    Eu003    Eu004
(PID.TID 0000.0001)  Fields:    Eu005    Eu006    Eu007    Eu008    Eu009    Eu010    Eu011    Eu012    Eu013    PAR001
(PID.TID 0000.0001)  Fields:    PAR002   PAR003   PAR004   PAR005   PAR006   PAR007   PAR008   PAR009   PAR010   PAR011
(PID.TID 0000.0001)  Fields:    PAR012   PAR013
(PID.TID 0000.0001) Creating Output Stream: 2d
(PID.TID 0000.0001) Output Frequency:    2592000.000000 ; Phase:           0.000000
(PID.TID 0000.0001)  Averaging Freq.:    2592000.000000 , Phase:           0.000000 , Cycle:   1
(PID.TID 0000.0001)  missing value: -9.990000000000E+02
(PID.TID 0000.0001)  Levels:    will be set later
(PID.TID 0000.0001)  Fields:    fluxCO2  gDICsurf gALKsurf gO2surf
(PID.TID 0000.0001) -----------------------------------------------------
(PID.TID 0000.0001)  DIAGNOSTICS_READPARMS: statistics diags. summary:
(PID.TID 0000.0001) Creating Stats. Output Stream: statsPP
(PID.TID 0000.0001) Output Frequency:      10800.000000 ; Phase:           0.000000
(PID.TID 0000.0001)  Regions:   0
(PID.TID 0000.0001)  Fields:    PP
(PID.TID 0000.0001) Creating Stats. Output Stream: statsNfix
(PID.TID 0000.0001) Output Frequency:      10800.000000 ; Phase:           0.000000
(PID.TID 0000.0001)  Regions:   0
(PID.TID 0000.0001)  Fields:    Nfix
(PID.TID 0000.0001) Creating Stats. Output Stream: statsDenit
(PID.TID 0000.0001) Output Frequency:      10800.000000 ; Phase:           0.000000
(PID.TID 0000.0001)  Regions:   0
(PID.TID 0000.0001)  Fields:    Denit
(PID.TID 0000.0001) -----------------------------------------------------
(PID.TID 0000.0001) 
(PID.TID 0000.0001)  OFFLINE_RESET_PARMS: => turn off Temp,Salt & Mom_Stepping flags
(PID.TID 0000.0001) SET_PARMS: done
(PID.TID 0000.0001) Enter INI_VERTICAL_GRID: setInterFDr=    T ; setCenterDr=    F
(PID.TID 0000.0001) %MON XC_max                       =   3.5950000000000E+02
(PID.TID 0000.0001) %MON XC_min                       =   5.0000000000000E-01
(PID.TID 0000.0001) %MON XC_mean                      =   1.8000000000000E+02
(PID.TID 0000.0001) %MON XC_sd                        =   1.0392264751567E+02
(PID.TID 0000.0001) %MON XG_max                       =   3.5900000000000E+02
(PID.TID 0000.0001) %MON XG_min                       =   0.0000000000000E+00
(PID.TID 0000.0001) %MON XG_mean                      =   1.7950000000000E+02
(PID.TID 0000.0001) %MON XG_sd                        =   1.0392264751567E+02
(PID.TID 0000.0001) %MON DXC_max                      =   1.1117324005452E+05
(PID.TID 0000.0001) %MON DXC_min                      =   2.0260485279198E+04
(PID.TID 0000.0001) %MON DXC_mean                     =   7.8416312620425E+04
(PID.TID 0000.0001) %MON DXC_sd                       =   2.8072575688353E+04
(PID.TID 0000.0001) %MON DXF_max                      =   1.1117324005452E+05
(PID.TID 0000.0001) %MON DXF_min                      =   2.0260485279198E+04
(PID.TID 0000.0001) %MON DXF_mean                     =   7.8416312620425E+04
(PID.TID 0000.0001) %MON DXF_sd                       =   2.8072575688353E+04
(PID.TID 0000.0001) %MON DXG_max                      =   1.1117747335204E+05
(PID.TID 0000.0001) %MON DXG_min                      =   1.9305765645195E+04
(PID.TID 0000.0001) %MON DXG_mean                     =   7.8413326767521E+04
(PID.TID 0000.0001) %MON DXG_sd                       =   2.8078861897602E+04
(PID.TID 0000.0001) %MON DXV_max                      =   1.1117747335204E+05
(PID.TID 0000.0001) %MON DXV_min                      =   1.9305765645195E+04
(PID.TID 0000.0001) %MON DXV_mean                     =   7.8413326767521E+04
(PID.TID 0000.0001) %MON DXV_sd                       =   2.8078861897602E+04
(PID.TID 0000.0001) %MON YC_max                       =   7.9500000000000E+01
(PID.TID 0000.0001) %MON YC_min                       =  -7.9500000000000E+01
(PID.TID 0000.0001) %MON YC_mean                      =   0.0000000000000E+00
(PID.TID 0000.0001) %MON YC_sd                        =   4.6187119416565E+01
(PID.TID 0000.0001) %MON YG_max                       =   7.9000000000000E+01
(PID.TID 0000.0001) %MON YG_min                       =  -8.0000000000000E+01
(PID.TID 0000.0001) %MON YG_mean                      =  -5.0000000000000E-01
(PID.TID 0000.0001) %MON YG_sd                        =   4.6187119416565E+01
(PID.TID 0000.0001) %MON DYC_max                      =   1.1117747335204E+05
(PID.TID 0000.0001) %MON DYC_min                      =   1.1117747335204E+05
(PID.TID 0000.0001) %MON DYC_mean                     =   1.1117747335204E+05
(PID.TID 0000.0001) %MON DYC_sd                       =   5.8207660913467E-10
(PID.TID 0000.0001) %MON DYF_max                      =   1.1117747335204E+05
(PID.TID 0000.0001) %MON DYF_min                      =   1.1117747335204E+05
(PID.TID 0000.0001) %MON DYF_mean                     =   1.1117747335204E+05
(PID.TID 0000.0001) %MON DYF_sd                       =   5.8207660913467E-10
(PID.TID 0000.0001) %MON DYG_max                      =   1.1117747335204E+05
(PID.TID 0000.0001) %MON DYG_min                      =   1.1117747335204E+05
(PID.TID 0000.0001) %MON DYG_mean                     =   1.1117747335204E+05
(PID.TID 0000.0001) %MON DYG_sd                       =   5.8207660913467E-10
(PID.TID 0000.0001) %MON DYU_max                      =   1.1117747335204E+05
(PID.TID 0000.0001) %MON DYU_min                      =   1.1117747335204E+05
(PID.TID 0000.0001) %MON DYU_mean                     =   1.1117747335204E+05
(PID.TID 0000.0001) %MON DYU_sd                       =   5.8207660913467E-10
(PID.TID 0000.0001) %MON RA_max                       =   1.2359803056756E+10
(PID.TID 0000.0001) %MON RA_min                       =   2.2524809726008E+09
(PID.TID 0000.0001) %MON RA_mean                      =   8.7180168532476E+09
(PID.TID 0000.0001) %MON RA_sd                        =   3.1209984222261E+09
(PID.TID 0000.0001) %MON RAW_max                      =   1.2359803056756E+10
(PID.TID 0000.0001) %MON RAW_min                      =   2.2524809726008E+09
(PID.TID 0000.0001) %MON RAW_mean                     =   8.7180168532476E+09
(PID.TID 0000.0001) %MON RAW_sd                       =   3.1209984222261E+09
(PID.TID 0000.0001) %MON RAS_max                      =   1.2360273698104E+10
(PID.TID 0000.0001) %MON RAS_min                      =   2.1463390031403E+09
(PID.TID 0000.0001) %MON RAS_mean                     =   8.7176848978794E+09
(PID.TID 0000.0001) %MON RAS_sd                       =   3.1216972982169E+09
(PID.TID 0000.0001) %MON RAZ_max                      =   1.2360273698104E+10
(PID.TID 0000.0001) %MON RAZ_min                      =   2.1463390031403E+09
(PID.TID 0000.0001) %MON RAZ_mean                     =   8.7176848978794E+09
(PID.TID 0000.0001) %MON RAZ_sd                       =   3.1216972982169E+09
(PID.TID 0000.0001) %MON AngleCS_max                  =   1.0000000000000E+00
(PID.TID 0000.0001) %MON AngleCS_min                  =   1.0000000000000E+00
(PID.TID 0000.0001) %MON AngleCS_mean                 =   1.0000000000000E+00
(PID.TID 0000.0001) %MON AngleCS_sd                   =   0.0000000000000E+00
(PID.TID 0000.0001) %MON AngleSN_max                  =   0.0000000000000E+00
(PID.TID 0000.0001) %MON AngleSN_min                  =   0.0000000000000E+00
(PID.TID 0000.0001) %MON AngleSN_mean                 =   0.0000000000000E+00
(PID.TID 0000.0001) %MON AngleSN_sd                   =   0.0000000000000E+00
(PID.TID 0000.0001)  MDS_READ_FIELD: opening global file: input_ecco/bathy_fl.bin
(PID.TID 0000.0001) // =======================================================
(PID.TID 0000.0001) // Field Model R_low (ini_masks_etc)
(PID.TID 0000.0001) // CMIN =         -5.700000000000000E+03
(PID.TID 0000.0001) // CMAX =         -5.500000000000000E+01
(PID.TID 0000.0001) // CINT =          2.090740740740741E+02
(PID.TID 0000.0001) // SYMBOLS (CMIN->CMAX): -abcdefghijklmnopqrstuvwxyz+
(PID.TID 0000.0001) //                  0.0: .
(PID.TID 0000.0001) // RANGE I (Lo:Hi:Step):(    -3:    24:     1)
(PID.TID 0000.0001) // RANGE J (Lo:Hi:Step):(    24:    -3:    -1)
(PID.TID 0000.0001) // RANGE K (Lo:Hi:Step):(   1:   1:   1)
(PID.TID 0000.0001) // =======================================================
(PID.TID 0000.0001) K =   1
(PID.TID 0000.0001) //                I=6       I=16
(PID.TID 0000.0001) // |--J--|321012345|789012345|78901234
(PID.TID 0000.0001) //     24 ljjjjggjggeeebbbbbbbbbeegejj
(PID.TID 0000.0001) //     23 jjjgggggeeeebbb----bbbbeeebe
(PID.TID 0000.0001) //     22 eeeggeebbbbbebbb--bbbbbbbbbb
(PID.TID 0000.0001) //     21 bbbbbbbbbbbbbbbbbbbbbbbbbbbb
(PID.TID 0000.0001) //     20 bbbbbbbbbbbbbbbbbbbbbbbbbbbb
(PID.TID 0000.0001) //     19 bbbbbbbbbbbbbbbebbbbbbbbbbbb
(PID.TID 0000.0001) //     18 bbbbbbbbbbbbbbbbbbbbbbbbbbbb
(PID.TID 0000.0001) //     17 bbbbbbeeeeebbbbbbbbbbbbbbbbb
(PID.TID 0000.0001) //     16 bbbbgnqnnjeeebbeeeeeebbbbbbb
(PID.TID 0000.0001) //     15 eebglnnljggggggjllljgeeeeeee
(PID.TID 0000.0001) //     14 eeeejgjjgggggjjllljggeeeeeee
(PID.TID 0000.0001) //     13 ggeeeegjggggjlnqlljggggggggg
(PID.TID 0000.0001) //     12 jggggggjllllllnsqnllljjjjjjj
(PID.TID 0000.0001) //     11 nlnqsqqqqqsssquzzyxyxwssssnl
(PID.TID 0000.0001) //     10 z+zzz+..z++...++..........yy
(PID.TID 0000.0001) //      9 ............................
(PID.TID 0000.0001) //      8 ............................
(PID.TID 0000.0001) //      7 ............................
(PID.TID 0000.0001) //      6 ............................
(PID.TID 0000.0001) //      5 ............................
(PID.TID 0000.0001) //      4 ............................
(PID.TID 0000.0001) //      3 ............................
(PID.TID 0000.0001) //      2 ............................
(PID.TID 0000.0001) //      1 ............................
(PID.TID 0000.0001) //      0 sqnnnlllnquwyz+.............
(PID.TID 0000.0001) //     -1 snnnnnnnqqqquzz.............
(PID.TID 0000.0001) //     -2 qnllllllnnqqnsxzzz..........
(PID.TID 0000.0001) //     -3 ljlllllllnqnnqqsuxz+........
(PID.TID 0000.0001) // =======================================================
(PID.TID 0000.0001) // END OF FIELD                                          =
(PID.TID 0000.0001) // =======================================================
(PID.TID 0000.0001) 
(PID.TID 0000.0001) // =======================================================
(PID.TID 0000.0001) // Field Model Ro_surf (ini_masks_etc)
(PID.TID 0000.0001) // CMIN =          1.000000000000000E+32
(PID.TID 0000.0001) // CMAX =         -1.000000000000000E+32
(PID.TID 0000.0001) // CINT =          0.000000000000000E+00
(PID.TID 0000.0001) // SYMBOLS (CMIN->CMAX): -abcdefghijklmnopqrstuvwxyz+
(PID.TID 0000.0001) //                  0.0: .
(PID.TID 0000.0001) // RANGE I (Lo:Hi:Step):(    -3:    24:     1)
(PID.TID 0000.0001) // RANGE J (Lo:Hi:Step):(    24:    -3:    -1)
(PID.TID 0000.0001) // RANGE K (Lo:Hi:Step):(   1:   1:   1)
(PID.TID 0000.0001) // =======================================================
(PID.TID 0000.0001) // =======================================================
(PID.TID 0000.0001) // END OF FIELD                                          =
(PID.TID 0000.0001) // =======================================================
(PID.TID 0000.0001) 
(PID.TID 0000.0001) // =======================================================
(PID.TID 0000.0001) // Field hFacC at iteration          0
(PID.TID 0000.0001) // CMIN =          1.000000000000000E+00
(PID.TID 0000.0001) // CMAX =          1.000000000000000E+00
(PID.TID 0000.0001) // CINT =          0.000000000000000E+00
(PID.TID 0000.0001) // SYMBOLS (CMIN->CMAX): -abcdefghijklmnopqrstuvwxyz+
(PID.TID 0000.0001) //                  0.0: .
(PID.TID 0000.0001) // RANGE I (Lo:Hi:Step):(    -3:    24:     1)
(PID.TID 0000.0001) // RANGE J (Lo:Hi:Step):(    24:    -3:    -1)
(PID.TID 0000.0001) // RANGE K (Lo:Hi:Step):(   1:   1:   1)
(PID.TID 0000.0001) // =======================================================
(PID.TID 0000.0001) // =======================================================
(PID.TID 0000.0001) // END OF FIELD                                          =
(PID.TID 0000.0001) // =======================================================
(PID.TID 0000.0001) 
(PID.TID 0000.0001) // =======================================================
(PID.TID 0000.0001) // Field hFacW at iteration          0
(PID.TID 0000.0001) // CMIN =          1.000000000000000E+00
(PID.TID 0000.0001) // CMAX =          1.000000000000000E+00
(PID.TID 0000.0001) // CINT =          0.000000000000000E+00
(PID.TID 0000.0001) // SYMBOLS (CMIN->CMAX): -abcdefghijklmnopqrstuvwxyz+
(PID.TID 0000.0001) //                  0.0: .
(PID.TID 0000.0001) // RANGE I (Lo:Hi:Step):(    -3:    24:     1)
(PID.TID 0000.0001) // RANGE J (Lo:Hi:Step):(    24:    -3:    -1)
(PID.TID 0000.0001) // RANGE K (Lo:Hi:Step):(   1:   1:   1)
(PID.TID 0000.0001) // =======================================================
(PID.TID 0000.0001) // =======================================================
(PID.TID 0000.0001) // END OF FIELD                                          =
(PID.TID 0000.0001) // =======================================================
(PID.TID 0000.0001) 
(PID.TID 0000.0001) // =======================================================
(PID.TID 0000.0001) // Field hFacS at iteration          0
(PID.TID 0000.0001) // CMIN =          1.000000000000000E+00
(PID.TID 0000.0001) // CMAX =          1.000000000000000E+00
(PID.TID 0000.0001) // CINT =          0.000000000000000E+00
(PID.TID 0000.0001) // SYMBOLS (CMIN->CMAX): -abcdefghijklmnopqrstuvwxyz+
(PID.TID 0000.0001) //                  0.0: .
(PID.TID 0000.0001) // RANGE I (Lo:Hi:Step):(    -3:    24:     1)
(PID.TID 0000.0001) // RANGE J (Lo:Hi:Step):(    24:    -3:    -1)
(PID.TID 0000.0001) // RANGE K (Lo:Hi:Step):(   1:   1:   1)
(PID.TID 0000.0001) // =======================================================
(PID.TID 0000.0001) // =======================================================
(PID.TID 0000.0001) // END OF FIELD                                          =
(PID.TID 0000.0001) // =======================================================
(PID.TID 0000.0001) 
(PID.TID 0000.0001) 
(PID.TID 0000.0001) // =======================================================
(PID.TID 0000.0001) // Calendar configuration >>> START <<<
(PID.TID 0000.0001) // =======================================================
(PID.TID 0000.0001) 
(PID.TID 0000.0001) modelstart = /* Start time of the model integration [s] */
(PID.TID 0000.0001)                 0.000000000000000E+00
(PID.TID 0000.0001)     ;
(PID.TID 0000.0001) modelend  = /* End time of the model integration [s] */
(PID.TID 0000.0001)                 1.440000000000000E+04
(PID.TID 0000.0001)     ;
(PID.TID 0000.0001) modelStep = /* Time interval for a model forward step [s] */
(PID.TID 0000.0001)                 3.600000000000000E+03
(PID.TID 0000.0001)     ;
(PID.TID 0000.0001) usingGregorianCalendar= /* Calendar Type: Gregorian Calendar */
(PID.TID 0000.0001)                   F
(PID.TID 0000.0001)     ;
(PID.TID 0000.0001) usingJulianCalendar = /* Calendar Type: Julian Calendar */
(PID.TID 0000.0001)                   F
(PID.TID 0000.0001)     ;
(PID.TID 0000.0001) usingNoLeapYearCal  = /* Calendar Type: without Leap Year */
(PID.TID 0000.0001)                   F
(PID.TID 0000.0001)     ;
(PID.TID 0000.0001) usingModelCalendar  = /* Calendar Type: Model Calendar */
(PID.TID 0000.0001)                   T
(PID.TID 0000.0001)     ;
(PID.TID 0000.0001) modelStartDate YYYYMMDD = /* Model start date YYYY-MM-DD */
(PID.TID 0000.0001)                20000101
(PID.TID 0000.0001)     ;
(PID.TID 0000.0001)   modelStartDate HHMMSS = /* Model start date HH-MM-SS  */
(PID.TID 0000.0001)                       0
(PID.TID 0000.0001)     ;
(PID.TID 0000.0001) modelEndDate   YYYYMMDD = /* Model end date YYYY-MM-DD */
(PID.TID 0000.0001)                20000101
(PID.TID 0000.0001)     ;
(PID.TID 0000.0001)   modelEndDate   HHMMSS = /* Model end date HH-MM-SS  */
(PID.TID 0000.0001)                   40000
(PID.TID 0000.0001)     ;
(PID.TID 0000.0001) intyears = /* Number of calendar years affected by the integration */
(PID.TID 0000.0001)                       1
(PID.TID 0000.0001)     ;
(PID.TID 0000.0001) intmonths= /* Number of calendar months affected by the integration */
(PID.TID 0000.0001)                       1
(PID.TID 0000.0001)     ;
(PID.TID 0000.0001) intdays = /* Number of calendar days affected by the integration */
(PID.TID 0000.0001)                       1
(PID.TID 0000.0001)     ;
(PID.TID 0000.0001) modelIter0 = /* Base timestep number  */
(PID.TID 0000.0001)                       0
(PID.TID 0000.0001)     ;
(PID.TID 0000.0001) modelIterEnd = /* Final timestep number  */
(PID.TID 0000.0001)                       4
(PID.TID 0000.0001)     ;
(PID.TID 0000.0001) modelIntSteps= /* Number of model timesteps  */
(PID.TID 0000.0001)                       4
(PID.TID 0000.0001)     ;
(PID.TID 0000.0001) 
(PID.TID 0000.0001) // =======================================================
(PID.TID 0000.0001) // Calendar configuration  >>> END <<<
(PID.TID 0000.0001) // =======================================================
(PID.TID 0000.0001) 
(PID.TID 0000.0001) GAD_INIT_FIXED: GAD_OlMinSize=  0  0  1
(PID.TID 0000.0001) 
(PID.TID 0000.0001) // ===================================
(PID.TID 0000.0001) // GAD parameters :
(PID.TID 0000.0001) // ===================================
(PID.TID 0000.0001) tempAdvScheme =   /* Temp. Horiz.Advection scheme selector */
(PID.TID 0000.0001)                       3
(PID.TID 0000.0001)     ;
(PID.TID 0000.0001) tempVertAdvScheme =   /* Temp. Vert. Advection scheme selector */
(PID.TID 0000.0001)                       3
(PID.TID 0000.0001)     ;
(PID.TID 0000.0001) tempMultiDimAdvec =   /* use Muti-Dim Advec method for Temp */
(PID.TID 0000.0001)                   F
(PID.TID 0000.0001)     ;
(PID.TID 0000.0001) tempSOM_Advection = /* use 2nd Order Moment Advection for Temp */
(PID.TID 0000.0001)                   F
(PID.TID 0000.0001)     ;
(PID.TID 0000.0001) AdamsBashforthGt = /* apply Adams-Bashforth extrapolation on Gt */
(PID.TID 0000.0001)                   F
(PID.TID 0000.0001)     ;
(PID.TID 0000.0001) AdamsBashforth_T = /* apply Adams-Bashforth extrapolation on Temp */
(PID.TID 0000.0001)                   F
(PID.TID 0000.0001)     ;
(PID.TID 0000.0001) temp_stayPositive = /* use Smolarkiewicz Hack for Temperature */
(PID.TID 0000.0001)                   F
(PID.TID 0000.0001)     ;
(PID.TID 0000.0001) saltAdvScheme =   /* Salt. Horiz.advection scheme selector */
(PID.TID 0000.0001)                       3
(PID.TID 0000.0001)     ;
(PID.TID 0000.0001) saltVertAdvScheme =   /* Salt. Vert. Advection scheme selector */
(PID.TID 0000.0001)                       3
(PID.TID 0000.0001)     ;
(PID.TID 0000.0001) saltMultiDimAdvec =   /* use Muti-Dim Advec method for Salt */
(PID.TID 0000.0001)                   F
(PID.TID 0000.0001)     ;
(PID.TID 0000.0001) saltSOM_Advection = /* use 2nd Order Moment Advection for Salt */
(PID.TID 0000.0001)                   F
(PID.TID 0000.0001)     ;
(PID.TID 0000.0001) AdamsBashforthGs = /* apply Adams-Bashforth extrapolation on Gs */
(PID.TID 0000.0001)                   F
(PID.TID 0000.0001)     ;
(PID.TID 0000.0001) AdamsBashforth_S = /* apply Adams-Bashforth extrapolation on Salt */
(PID.TID 0000.0001)                   F
(PID.TID 0000.0001)     ;
(PID.TID 0000.0001) salt_stayPositive = /* use Smolarkiewicz Hack for Salinity */
(PID.TID 0000.0001)                   F
(PID.TID 0000.0001)     ;
(PID.TID 0000.0001) SmolarkiewiczMaxFrac = /* maximal fraction of tracer to flow out of a cell */
(PID.TID 0000.0001)                 1.000000000000000E+00
(PID.TID 0000.0001)     ;
(PID.TID 0000.0001) // ===================================
(PID.TID 0000.0001) 
(PID.TID 0000.0001) // =======================================================
(PID.TID 0000.0001) // External forcing (EXF) configuration >>> START <<<
(PID.TID 0000.0001) // =======================================================
(PID.TID 0000.0001) 
(PID.TID 0000.0001)  EXF general parameters:
(PID.TID 0000.0001) 
(PID.TID 0000.0001) exf_iprec = /* exf file precision */
(PID.TID 0000.0001)                      32
(PID.TID 0000.0001)     ;
(PID.TID 0000.0001) useExfYearlyFields = /* add extension _YEAR to input file names */
(PID.TID 0000.0001)                   F
(PID.TID 0000.0001)     ;
(PID.TID 0000.0001) twoDigitYear = /* use 2-digit year extension */
(PID.TID 0000.0001)                   F
(PID.TID 0000.0001)     ;
(PID.TID 0000.0001) useExfCheckRange = /* check for fields range */
(PID.TID 0000.0001)                   F
(PID.TID 0000.0001)     ;
(PID.TID 0000.0001) diags_opOceWeighted = /* weight flux diags by open-ocean fraction */
(PID.TID 0000.0001)                   F
(PID.TID 0000.0001)     ;
(PID.TID 0000.0001) exf_debugLev = /* select EXF-debug printing level */
(PID.TID 0000.0001)                       2
(PID.TID 0000.0001)     ;
(PID.TID 0000.0001) exf_monFreq  = /* EXF monitor frequency [ s ] */
(PID.TID 0000.0001)                 1.000000000000000E+00
(PID.TID 0000.0001)     ;
(PID.TID 0000.0001) repeatPeriod = /* period for cycling forcing dataset [ s ] */
(PID.TID 0000.0001)                 3.110400000000000E+07
(PID.TID 0000.0001)     ;
(PID.TID 0000.0001) climTempFreeze= /* Minimum climatological temperature [deg.C] */
(PID.TID 0000.0001)                -1.900000000000000E+00
(PID.TID 0000.0001)     ;
(PID.TID 0000.0001) windStressMax = /* Maximum absolute windstress [ Pa ] */
(PID.TID 0000.0001)                 2.000000000000000E+00
(PID.TID 0000.0001)     ;
(PID.TID 0000.0001) stressIsOnCgrid = /* set u,v_stress on Arakawa C-grid */
(PID.TID 0000.0001)                   F
(PID.TID 0000.0001)     ;
(PID.TID 0000.0001) rotateStressOnAgrid = /* rotate u,v_stress on Arakawa A-grid */
(PID.TID 0000.0001)                   F
(PID.TID 0000.0001)     ;
(PID.TID 0000.0001) cen2kel = /* conversion of deg. Centigrade to Kelvin [K] */
(PID.TID 0000.0001)                 2.731500000000000E+02
(PID.TID 0000.0001)     ;
(PID.TID 0000.0001) gravity_mks= /* gravitational acceleration [m/s^2] */
(PID.TID 0000.0001)                 9.810000000000000E+00
(PID.TID 0000.0001)     ;
(PID.TID 0000.0001) atmrho =  /* mean atmospheric density [kg/m^3] */
(PID.TID 0000.0001)                 1.200000000000000E+00
(PID.TID 0000.0001)     ;
(PID.TID 0000.0001) atmcp =  /* mean atmospheric specific heat [J/kg/K] */
(PID.TID 0000.0001)                 1.005000000000000E+03
(PID.TID 0000.0001)     ;
(PID.TID 0000.0001) flamb =  /* latent heat of evaporation [J/kg] */
(PID.TID 0000.0001)                 2.500000000000000E+06
(PID.TID 0000.0001)     ;
(PID.TID 0000.0001) flami =  /* latent heat of pure-ice melting [J/kg] */
(PID.TID 0000.0001)                 3.340000000000000E+05
(PID.TID 0000.0001)     ;
(PID.TID 0000.0001) cvapor_fac = /* const. for Saturation calculation [?] */
(PID.TID 0000.0001)                 6.403800000000000E+05
(PID.TID 0000.0001)     ;
(PID.TID 0000.0001) cvapor_exp = /* const. for Saturation calculation [?] */
(PID.TID 0000.0001)                 5.107400000000000E+03
(PID.TID 0000.0001)     ;
(PID.TID 0000.0001) cvapor_fac_ice= /* const. for Saturation calculation [?] */
(PID.TID 0000.0001)                 1.163780000000000E+07
(PID.TID 0000.0001)     ;
(PID.TID 0000.0001) cvapor_exp_ice= /* const. for Saturation calculation [?] */
(PID.TID 0000.0001)                 5.897800000000000E+03
(PID.TID 0000.0001)     ;
(PID.TID 0000.0001) humid_fac = /* humidity coef. in virtual temp. [(kg/kg)^-1] */
(PID.TID 0000.0001)                 6.060000000000000E-01
(PID.TID 0000.0001)     ;
(PID.TID 0000.0001) gamma_blk = /* adiabatic lapse rate [?] */
(PID.TID 0000.0001)                 1.000000000000000E-02
(PID.TID 0000.0001)     ;
(PID.TID 0000.0001) saltsat = /* reduction of Qsat over salty water [-] */
(PID.TID 0000.0001)                 9.800000000000000E-01
(PID.TID 0000.0001)     ;
(PID.TID 0000.0001) noNegativeEvap = /* prevent negative Evaporation */
(PID.TID 0000.0001)                   F
(PID.TID 0000.0001)     ;
(PID.TID 0000.0001) sstExtrapol = /* extrapolation coeff from lev. 1 & 2 to surf [-] */
(PID.TID 0000.0001)                 0.000000000000000E+00
(PID.TID 0000.0001)     ;
(PID.TID 0000.0001) cDrag_1 = /* coef used in drag calculation [?] */
(PID.TID 0000.0001)                 2.700000000000000E-03
(PID.TID 0000.0001)     ;
(PID.TID 0000.0001) cDrag_2 = /* coef used in drag calculation [?] */
(PID.TID 0000.0001)                 1.420000000000000E-04
(PID.TID 0000.0001)     ;
(PID.TID 0000.0001) cDrag_3 = /* coef used in drag calculation [?] */
(PID.TID 0000.0001)                 7.640000000000000E-05
(PID.TID 0000.0001)     ;
(PID.TID 0000.0001) cStanton_1 = /* coef used in Stanton number calculation [?] */
(PID.TID 0000.0001)                 3.270000000000000E-02
(PID.TID 0000.0001)     ;
(PID.TID 0000.0001) cStanton_2 = /* coef used in Stanton number calculation [?] */
(PID.TID 0000.0001)                 1.800000000000000E-02
(PID.TID 0000.0001)     ;
(PID.TID 0000.0001) cDalton = /* coef used in Dalton number calculation [?] */
(PID.TID 0000.0001)                 3.460000000000000E-02
(PID.TID 0000.0001)     ;
(PID.TID 0000.0001) exf_scal_BulkCdn= /* Drag coefficient scaling factor [-] */
(PID.TID 0000.0001)                 1.000000000000000E+00
(PID.TID 0000.0001)     ;
(PID.TID 0000.0001) zolmin = /* minimum stability parameter [?] */
(PID.TID 0000.0001)                -1.000000000000000E+02
(PID.TID 0000.0001)     ;
(PID.TID 0000.0001) psim_fac = /* coef used in turbulent fluxes calculation [-] */
(PID.TID 0000.0001)                 5.000000000000000E+00
(PID.TID 0000.0001)     ;
(PID.TID 0000.0001) zref =  /* reference height [ m ] */
(PID.TID 0000.0001)                 1.000000000000000E+01
(PID.TID 0000.0001)     ;
(PID.TID 0000.0001) hu =  /* height of mean wind [ m ] */
(PID.TID 0000.0001)                 1.000000000000000E+01
(PID.TID 0000.0001)     ;
(PID.TID 0000.0001) ht =  /* height of mean temperature [ m ] */
(PID.TID 0000.0001)                 2.000000000000000E+00
(PID.TID 0000.0001)     ;
(PID.TID 0000.0001) hq =  /* height of mean spec.humidity [ m ] */
(PID.TID 0000.0001)                 2.000000000000000E+00
(PID.TID 0000.0001)     ;
(PID.TID 0000.0001) uMin = /* minimum wind speed [m/s] */
(PID.TID 0000.0001)                 5.000000000000000E-01
(PID.TID 0000.0001)     ;
(PID.TID 0000.0001) useStabilityFct_overIce= /* transfert Coeffs over sea-ice depend on stability */
(PID.TID 0000.0001)                   F
(PID.TID 0000.0001)     ;
(PID.TID 0000.0001) exf_iceCd = /* drag coefficient over sea-ice (fixed) [-] */
(PID.TID 0000.0001)                 1.630000000000000E-03
(PID.TID 0000.0001)     ;
(PID.TID 0000.0001) exf_iceCe = /* transfert coeff. over sea-ice, for Evap (fixed) [-] */
(PID.TID 0000.0001)                 1.630000000000000E-03
(PID.TID 0000.0001)     ;
(PID.TID 0000.0001) exf_iceCh = /* transfert coeff. over sea-ice, Sens.Heat.(fixed)[-] */
(PID.TID 0000.0001)                 1.630000000000000E-03
(PID.TID 0000.0001)     ;
(PID.TID 0000.0001) exf_albedo =  /* Sea-water albedo [-] */
(PID.TID 0000.0001)                 1.000000000000000E-01
(PID.TID 0000.0001)     ;
(PID.TID 0000.0001) useExfZenAlbedo = /* Sea-water albedo varies with zenith angle */
(PID.TID 0000.0001)                   F
(PID.TID 0000.0001)     ;
(PID.TID 0000.0001) select_ZenAlbedo = /* Sea-water albedo computation method */
(PID.TID 0000.0001)                       0
(PID.TID 0000.0001)     ;
(PID.TID 0000.0001) useExfZenIncoming = /* compute incoming solar radiation */
(PID.TID 0000.0001)                   F
(PID.TID 0000.0001)     ;
(PID.TID 0000.0001) ocean_emissivity = /* longwave ocean-surface emissivity [-] */
(PID.TID 0000.0001)                 9.700176366843034E-01
(PID.TID 0000.0001)     ;
(PID.TID 0000.0001) ice_emissivity = /* longwave seaice emissivity [-] */
(PID.TID 0000.0001)                 9.500000000000000E-01
(PID.TID 0000.0001)     ;
(PID.TID 0000.0001) snow_emissivity = /* longwave snow  emissivity [-] */
(PID.TID 0000.0001)                 9.500000000000000E-01
(PID.TID 0000.0001)     ;
(PID.TID 0000.0001) 
(PID.TID 0000.0001)  EXF main CPP flags:
(PID.TID 0000.0001) 
(PID.TID 0000.0001) // USE_EXF_INTERPOLATION:          NOT defined
(PID.TID 0000.0001) // ALLOW_ATM_TEMP:                     defined
(PID.TID 0000.0001) // ALLOW_ATM_WIND (useAtmWind):        defined
(PID.TID 0000.0001) // ALLOW_DOWNWARD_RADIATION:           defined
(PID.TID 0000.0001) // ALLOW_BULKFORMULAE:                 defined
(PID.TID 0000.0001) // ALLOW_READ_TURBFLUXES:          NOT defined
(PID.TID 0000.0001) // EXF_READ_EVAP:                  NOT defined
(PID.TID 0000.0001) // ALLOW_RUNOFF:                       defined
(PID.TID 0000.0001) // ALLOW_RUNOFTEMP:                NOT defined
(PID.TID 0000.0001) // ALLOW_SALTFLX:                  NOT defined
(PID.TID 0000.0001) 
(PID.TID 0000.0001) // =======================================================
(PID.TID 0000.0001) // External forcing (EXF) climatology configuration :
(PID.TID 0000.0001) // =======================================================
(PID.TID 0000.0001) 
(PID.TID 0000.0001) // ALLOW_CLIMSST_RELAXATION:       NOT defined
(PID.TID 0000.0001) 
(PID.TID 0000.0001) // ALLOW_CLIMSSS_RELAXATION:       NOT defined
(PID.TID 0000.0001) 
(PID.TID 0000.0001) // =======================================================
(PID.TID 0000.0001) // External forcing (EXF) configuration  >>> END <<<
(PID.TID 0000.0001) // =======================================================
(PID.TID 0000.0001) 
(PID.TID 0000.0001) PTRACERS_INIT_FIXED: updated GAD_OlMinSize=  2  0  1
(PID.TID 0000.0001) GUD_INIT_FIXED:
(PID.TID 0000.0001) GUD_INIT_FIXED: wavebands:
(PID.TID 0000.0001) GUD_INIT_FIXED:  idx       low   rep      high    width
(PID.TID 0000.0001) GUD_INIT_FIXED:    1   400.000  400.   412.500   12.500
(PID.TID 0000.0001) GUD_INIT_FIXED:    2   412.500  425.   437.500   25.000
(PID.TID 0000.0001) GUD_INIT_FIXED:    3   437.500  450.   462.500   25.000
(PID.TID 0000.0001) GUD_INIT_FIXED:    4   462.500  475.   487.500   25.000
(PID.TID 0000.0001) GUD_INIT_FIXED:    5   487.500  500.   512.500   25.000
(PID.TID 0000.0001) GUD_INIT_FIXED:    6   512.500  525.   537.500   25.000
(PID.TID 0000.0001) GUD_INIT_FIXED:    7   537.500  550.   562.500   25.000
(PID.TID 0000.0001) GUD_INIT_FIXED:    8   562.500  575.   587.500   25.000
(PID.TID 0000.0001) GUD_INIT_FIXED:    9   587.500  600.   612.500   25.000
(PID.TID 0000.0001) GUD_INIT_FIXED:   10   612.500  625.   637.500   25.000
(PID.TID 0000.0001) GUD_INIT_FIXED:   11   637.500  650.   662.500   25.000
(PID.TID 0000.0001) GUD_INIT_FIXED:   12   662.500  675.   687.500   25.000
(PID.TID 0000.0001) GUD_INIT_FIXED:   13   687.500  700.   700.000   12.500
(PID.TID 0000.0001) GUD_INIT_FIXED:
(PID.TID 0000.0001) GUD_INIT_FIXED: water spectra:
(PID.TID 0000.0001) GUD_INIT_FIXED:  lam aw             bw
(PID.TID 0000.0001) GUD_INIT_FIXED: 400.         0.0053    0.0071
(PID.TID 0000.0001) GUD_INIT_FIXED: 425.         0.0048    0.0058
(PID.TID 0000.0001) GUD_INIT_FIXED: 450.         0.0085    0.0045
(PID.TID 0000.0001) GUD_INIT_FIXED: 475.         0.0117    0.0036
(PID.TID 0000.0001) GUD_INIT_FIXED: 500.         0.0223    0.0029
(PID.TID 0000.0001) GUD_INIT_FIXED: 525.         0.0422    0.0023
(PID.TID 0000.0001) GUD_INIT_FIXED: 550.         0.0554    0.0019
(PID.TID 0000.0001) GUD_INIT_FIXED: 575.         0.0826    0.0016
(PID.TID 0000.0001) GUD_INIT_FIXED: 600.         0.2095    0.0014
(PID.TID 0000.0001) GUD_INIT_FIXED: 625.         0.2848    0.0011
(PID.TID 0000.0001) GUD_INIT_FIXED: 650.         0.3530    0.0009
(PID.TID 0000.0001) GUD_INIT_FIXED: 675.         0.4552    0.0008
(PID.TID 0000.0001) GUD_INIT_FIXED: 700.         0.5507    0.0007
(PID.TID 0000.0001) GUD_INIT_FIXED:
(PID.TID 0000.0001) GUD_INIT_FIXED: phyto spectra:
(PID.TID 0000.0001) GUD_INIT_FIXED: type    1
(PID.TID 0000.0001) GUD_INIT_FIXED:  lam ap        ap_ps     bp        bbp
(PID.TID 0000.0001) GUD_INIT_FIXED: 400.    0.0213    0.0213    0.0070         0.000003728
(PID.TID 0000.0001) GUD_INIT_FIXED: 425.    0.0251    0.0251    0.0067         0.000003728
(PID.TID 0000.0001) GUD_INIT_FIXED: 450.    0.0261    0.0261    0.0067         0.000003728
(PID.TID 0000.0001) GUD_INIT_FIXED: 475.    0.0216    0.0216    0.0074         0.000003728
(PID.TID 0000.0001) GUD_INIT_FIXED: 500.    0.0159    0.0159    0.0083         0.000003728
(PID.TID 0000.0001) GUD_INIT_FIXED: 525.    0.0100    0.0100    0.0091         0.000003728
(PID.TID 0000.0001) GUD_INIT_FIXED: 550.    0.0063    0.0063    0.0094         0.000003728
(PID.TID 0000.0001) GUD_INIT_FIXED: 575.    0.0044    0.0044    0.0094         0.000003728
(PID.TID 0000.0001) GUD_INIT_FIXED: 600.    0.0041    0.0041    0.0091         0.000003728
(PID.TID 0000.0001) GUD_INIT_FIXED: 625.    0.0051    0.0051    0.0087         0.000003728
(PID.TID 0000.0001) GUD_INIT_FIXED: 650.    0.0060    0.0060    0.0082         0.000003728
(PID.TID 0000.0001) GUD_INIT_FIXED: 675.    0.0131    0.0131    0.0076         0.000003728
(PID.TID 0000.0001) GUD_INIT_FIXED: 700.    0.0052    0.0052    0.0088         0.000003728
(PID.TID 0000.0001) GUD_INIT_FIXED:
(PID.TID 0000.0001) GUD_INIT_FIXED: type    2
(PID.TID 0000.0001) GUD_INIT_FIXED:  lam ap        ap_ps     bp        bbp
(PID.TID 0000.0001) GUD_INIT_FIXED: 400.    0.0323    0.0227    0.0077         0.000013127
(PID.TID 0000.0001) GUD_INIT_FIXED: 425.    0.0406    0.0252    0.0071         0.000013127
(PID.TID 0000.0001) GUD_INIT_FIXED: 450.    0.0379    0.0153    0.0068         0.000013127
(PID.TID 0000.0001) GUD_INIT_FIXED: 475.    0.0304    0.0070    0.0062         0.000013127
(PID.TID 0000.0001) GUD_INIT_FIXED: 500.    0.0304    0.0147    0.0058         0.000013127
(PID.TID 0000.0001) GUD_INIT_FIXED: 525.    0.0268    0.0241    0.0053         0.000013127
(PID.TID 0000.0001) GUD_INIT_FIXED: 550.    0.0292    0.0291    0.0049         0.000013127
(PID.TID 0000.0001) GUD_INIT_FIXED: 575.    0.0135    0.0135    0.0047         0.000013127
(PID.TID 0000.0001) GUD_INIT_FIXED: 600.    0.0064    0.0064    0.0042         0.000013127
(PID.TID 0000.0001) GUD_INIT_FIXED: 625.    0.0072    0.0072    0.0038         0.000013127
(PID.TID 0000.0001) GUD_INIT_FIXED: 650.    0.0077    0.0077    0.0034         0.000013127
(PID.TID 0000.0001) GUD_INIT_FIXED: 675.    0.0147    0.0147    0.0032         0.000013127
(PID.TID 0000.0001) GUD_INIT_FIXED: 700.    0.0070    0.0070    0.0033         0.000013127
(PID.TID 0000.0001) GUD_INIT_FIXED:
(PID.TID 0000.0001) GUD_INIT_FIXED: type    3
(PID.TID 0000.0001) GUD_INIT_FIXED:  lam ap        ap_ps     bp        bbp
(PID.TID 0000.0001) GUD_INIT_FIXED: 400.    0.0273    0.0174    0.0035         0.000014685
(PID.TID 0000.0001) GUD_INIT_FIXED: 425.    0.0399    0.0229    0.0032         0.000014685
(PID.TID 0000.0001) GUD_INIT_FIXED: 450.    0.0453    0.0172    0.0034         0.000014685
(PID.TID 0000.0001) GUD_INIT_FIXED: 475.    0.0280    0.0049    0.0034         0.000014685
(PID.TID 0000.0001) GUD_INIT_FIXED: 500.    0.0191    0.0011    0.0033         0.000014685
(PID.TID 0000.0001) GUD_INIT_FIXED: 525.    0.0062    0.0017    0.0029         0.000014685
(PID.TID 0000.0001) GUD_INIT_FIXED: 550.    0.0029    0.0026    0.0025         0.000014685
(PID.TID 0000.0001) GUD_INIT_FIXED: 575.    0.0028    0.0028    0.0022         0.000014685
(PID.TID 0000.0001) GUD_INIT_FIXED: 600.    0.0035    0.0035    0.0019         0.000014685
(PID.TID 0000.0001) GUD_INIT_FIXED: 625.    0.0046    0.0046    0.0017         0.000014685
(PID.TID 0000.0001) GUD_INIT_FIXED: 650.    0.0064    0.0064    0.0015         0.000014685
(PID.TID 0000.0001) GUD_INIT_FIXED: 675.    0.0148    0.0148    0.0015         0.000014685
(PID.TID 0000.0001) GUD_INIT_FIXED: 700.    0.0060    0.0060    0.0016         0.000014685
(PID.TID 0000.0001) GUD_INIT_FIXED:
(PID.TID 0000.0001) GUD_INIT_FIXED: type    4
(PID.TID 0000.0001) GUD_INIT_FIXED:  lam ap        ap_ps     bp        bbp
(PID.TID 0000.0001) GUD_INIT_FIXED: 400.    0.0420    0.0225    0.0035         0.000014685
(PID.TID 0000.0001) GUD_INIT_FIXED: 425.    0.0604    0.0286    0.0032         0.000014685
(PID.TID 0000.0001) GUD_INIT_FIXED: 450.    0.0728    0.0262    0.0034         0.000014685
(PID.TID 0000.0001) GUD_INIT_FIXED: 475.    0.0584    0.0180    0.0034         0.000014685
(PID.TID 0000.0001) GUD_INIT_FIXED: 500.    0.0353    0.0030    0.0033         0.000014685
(PID.TID 0000.0001) GUD_INIT_FIXED: 525.    0.0132    0.0035    0.0029         0.000014685
(PID.TID 0000.0001) GUD_INIT_FIXED: 550.    0.0068    0.0061    0.0025         0.000014685
(PID.TID 0000.0001) GUD_INIT_FIXED: 575.    0.0055    0.0055    0.0022         0.000014685
(PID.TID 0000.0001) GUD_INIT_FIXED: 600.    0.0060    0.0060    0.0019         0.000014685
(PID.TID 0000.0001) GUD_INIT_FIXED: 625.    0.0067    0.0067    0.0017         0.000014685
(PID.TID 0000.0001) GUD_INIT_FIXED: 650.    0.0114    0.0114    0.0015         0.000014685
(PID.TID 0000.0001) GUD_INIT_FIXED: 675.    0.0159    0.0159    0.0015         0.000014685
(PID.TID 0000.0001) GUD_INIT_FIXED: 700.    0.0072    0.0072    0.0016         0.000014685
(PID.TID 0000.0001) GUD_INIT_FIXED:
(PID.TID 0000.0001) GUD_INIT_FIXED: type    5
(PID.TID 0000.0001) GUD_INIT_FIXED:  lam ap        ap_ps     bp        bbp
(PID.TID 0000.0001) GUD_INIT_FIXED: 400.    0.0205    0.0205    0.0035         0.000000240
(PID.TID 0000.0001) GUD_INIT_FIXED: 425.    0.0232    0.0232    0.0034         0.000000240
(PID.TID 0000.0001) GUD_INIT_FIXED: 450.    0.0218    0.0218    0.0034         0.000000240
(PID.TID 0000.0001) GUD_INIT_FIXED: 475.    0.0164    0.0164    0.0035         0.000000240
(PID.TID 0000.0001) GUD_INIT_FIXED: 500.    0.0139    0.0139    0.0036         0.000000240
(PID.TID 0000.0001) GUD_INIT_FIXED: 525.    0.0104    0.0104    0.0037         0.000000240
(PID.TID 0000.0001) GUD_INIT_FIXED: 550.    0.0073    0.0073    0.0036         0.000000240
(PID.TID 0000.0001) GUD_INIT_FIXED: 575.    0.0050    0.0050    0.0036         0.000000240
(PID.TID 0000.0001) GUD_INIT_FIXED: 600.    0.0044    0.0044    0.0035         0.000000240
(PID.TID 0000.0001) GUD_INIT_FIXED: 625.    0.0054    0.0054    0.0034         0.000000240
(PID.TID 0000.0001) GUD_INIT_FIXED: 650.    0.0063    0.0063    0.0032         0.000000240
(PID.TID 0000.0001) GUD_INIT_FIXED: 675.    0.0139    0.0139    0.0030         0.000000240
(PID.TID 0000.0001) GUD_INIT_FIXED: 700.    0.0051    0.0051    0.0031         0.000000240
(PID.TID 0000.0001) GUD_INIT_FIXED:
(PID.TID 0000.0001) GUD_INIT_FIXED: type    6
(PID.TID 0000.0001) GUD_INIT_FIXED:  lam ap        ap_ps     bp        bbp
(PID.TID 0000.0001) GUD_INIT_FIXED: 400.    0.0300    0.0288    0.0066         0.000002516
(PID.TID 0000.0001) GUD_INIT_FIXED: 425.    0.0338    0.0320    0.0064         0.000002516
(PID.TID 0000.0001) GUD_INIT_FIXED: 450.    0.0354    0.0327    0.0065         0.000002516
(PID.TID 0000.0001) GUD_INIT_FIXED: 475.    0.0326    0.0291    0.0068         0.000002516
(PID.TID 0000.0001) GUD_INIT_FIXED: 500.    0.0217    0.0193    0.0076         0.000002516
(PID.TID 0000.0001) GUD_INIT_FIXED: 525.    0.0144    0.0141    0.0081         0.000002516
(PID.TID 0000.0001) GUD_INIT_FIXED: 550.    0.0091    0.0091    0.0084         0.000002516
(PID.TID 0000.0001) GUD_INIT_FIXED: 575.    0.0066    0.0066    0.0084         0.000002516
(PID.TID 0000.0001) GUD_INIT_FIXED: 600.    0.0066    0.0066    0.0082         0.000002516
(PID.TID 0000.0001) GUD_INIT_FIXED: 625.    0.0067    0.0067    0.0080         0.000002516
(PID.TID 0000.0001) GUD_INIT_FIXED: 650.    0.0069    0.0069    0.0077         0.000002516
(PID.TID 0000.0001) GUD_INIT_FIXED: 675.    0.0140    0.0140    0.0073         0.000002516
(PID.TID 0000.0001) GUD_INIT_FIXED: 700.    0.0045    0.0045    0.0080         0.000002516
(PID.TID 0000.0001) GUD_INIT_FIXED:
(PID.TID 0000.0001) GUD_INIT_FIXED: type    7
(PID.TID 0000.0001) GUD_INIT_FIXED:  lam ap        ap_ps     bp        bbp
(PID.TID 0000.0001) GUD_INIT_FIXED: 400.    0.0267    0.0192    0.0173         0.000051850
(PID.TID 0000.0001) GUD_INIT_FIXED: 425.    0.0325    0.0212    0.0166         0.000051850
(PID.TID 0000.0001) GUD_INIT_FIXED: 450.    0.0284    0.0118    0.0157         0.000051850
(PID.TID 0000.0001) GUD_INIT_FIXED: 475.    0.0235    0.0041    0.0148         0.000051850
(PID.TID 0000.0001) GUD_INIT_FIXED: 500.    0.0188    0.0064    0.0144         0.000051850
(PID.TID 0000.0001) GUD_INIT_FIXED: 525.    0.0130    0.0106    0.0135         0.000051850
(PID.TID 0000.0001) GUD_INIT_FIXED: 550.    0.0111    0.0111    0.0121         0.000051850
(PID.TID 0000.0001) GUD_INIT_FIXED: 575.    0.0086    0.0086    0.0118         0.000051850
(PID.TID 0000.0001) GUD_INIT_FIXED: 600.    0.0078    0.0078    0.0117         0.000051850
(PID.TID 0000.0001) GUD_INIT_FIXED: 625.    0.0091    0.0091    0.0115         0.000051850
(PID.TID 0000.0001) GUD_INIT_FIXED: 650.    0.0110    0.0110    0.0106         0.000051850
(PID.TID 0000.0001) GUD_INIT_FIXED: 675.    0.0170    0.0170    0.0097         0.000051850
(PID.TID 0000.0001) GUD_INIT_FIXED: 700.    0.0065    0.0065    0.0090         0.000051850
(PID.TID 0000.0001) GUD_INIT_FIXED:
(PID.TID 0000.0001) GUD_INIT_FIXED: type    8
(PID.TID 0000.0001) GUD_INIT_FIXED:  lam ap        ap_ps     bp        bbp
(PID.TID 0000.0001) GUD_INIT_FIXED: 400.    0.0474    0.0274    0.0077         0.000013127
(PID.TID 0000.0001) GUD_INIT_FIXED: 425.    0.0576    0.0283    0.0071         0.000013127
(PID.TID 0000.0001) GUD_INIT_FIXED: 450.    0.0543    0.0160    0.0068         0.000013127
(PID.TID 0000.0001) GUD_INIT_FIXED: 475.    0.0444    0.0062    0.0062         0.000013127
(PID.TID 0000.0001) GUD_INIT_FIXED: 500.    0.0416    0.0138    0.0058         0.000013127
(PID.TID 0000.0001) GUD_INIT_FIXED: 525.    0.0270    0.0224    0.0053         0.000013127
(PID.TID 0000.0001) GUD_INIT_FIXED: 550.    0.0270    0.0269    0.0049         0.000013127
(PID.TID 0000.0001) GUD_INIT_FIXED: 575.    0.0144    0.0144    0.0047         0.000013127
(PID.TID 0000.0001) GUD_INIT_FIXED: 600.    0.0076    0.0076    0.0042         0.000013127
(PID.TID 0000.0001) GUD_INIT_FIXED: 625.    0.0089    0.0089    0.0038         0.000013127
(PID.TID 0000.0001) GUD_INIT_FIXED: 650.    0.0098    0.0098    0.0034         0.000013127
(PID.TID 0000.0001) GUD_INIT_FIXED: 675.    0.0200    0.0200    0.0032         0.000013127
(PID.TID 0000.0001) GUD_INIT_FIXED: 700.    0.0100    0.0100    0.0033         0.000013127
(PID.TID 0000.0001) GUD_INIT_FIXED:
(PID.TID 0000.0001) GUD_INIT_FIXED: type    9
(PID.TID 0000.0001) GUD_INIT_FIXED:  lam ap        ap_ps     bp        bbp
(PID.TID 0000.0001) GUD_INIT_FIXED: 400.    0.0162    0.0162    0.0007         0.000001735
(PID.TID 0000.0001) GUD_INIT_FIXED: 425.    0.0178    0.0178    0.0007         0.000001735
(PID.TID 0000.0001) GUD_INIT_FIXED: 450.    0.0180    0.0180    0.0007         0.000001735
(PID.TID 0000.0001) GUD_INIT_FIXED: 475.    0.0165    0.0165    0.0007         0.000001735
(PID.TID 0000.0001) GUD_INIT_FIXED: 500.    0.0135    0.0135    0.0007         0.000001735
(PID.TID 0000.0001) GUD_INIT_FIXED: 525.    0.0110    0.0110    0.0008         0.000001735
(PID.TID 0000.0001) GUD_INIT_FIXED: 550.    0.0082    0.0082    0.0008         0.000001735
(PID.TID 0000.0001) GUD_INIT_FIXED: 575.    0.0051    0.0051    0.0009         0.000001735
(PID.TID 0000.0001) GUD_INIT_FIXED: 600.    0.0044    0.0044    0.0009         0.000001735
(PID.TID 0000.0001) GUD_INIT_FIXED: 625.    0.0048    0.0048    0.0009         0.000001735
(PID.TID 0000.0001) GUD_INIT_FIXED: 650.    0.0058    0.0058    0.0009         0.000001735
(PID.TID 0000.0001) GUD_INIT_FIXED: 675.    0.0105    0.0105    0.0009         0.000001735
(PID.TID 0000.0001) GUD_INIT_FIXED: 700.    0.0048    0.0048    0.0010         0.000001735
(PID.TID 0000.0001) GUD_INIT_FIXED:
(PID.TID 0000.0001) GUD_INIT_FIXED: type   10
(PID.TID 0000.0001) GUD_INIT_FIXED:  lam ap        ap_ps     bp        bbp
(PID.TID 0000.0001) GUD_INIT_FIXED: 400.    0.0310    0.0223    0.0064         0.000012850
(PID.TID 0000.0001) GUD_INIT_FIXED: 425.    0.0387    0.0253    0.0060         0.000012850
(PID.TID 0000.0001) GUD_INIT_FIXED: 450.    0.0396    0.0206    0.0059         0.000012850
(PID.TID 0000.0001) GUD_INIT_FIXED: 475.    0.0318    0.0137    0.0058         0.000012850
(PID.TID 0000.0001) GUD_INIT_FIXED: 500.    0.0246    0.0112    0.0059         0.000012850
(PID.TID 0000.0001) GUD_INIT_FIXED: 525.    0.0147    0.0118    0.0057         0.000012850
(PID.TID 0000.0001) GUD_INIT_FIXED: 550.    0.0118    0.0116    0.0055         0.000012850
(PID.TID 0000.0001) GUD_INIT_FIXED: 575.    0.0074    0.0074    0.0053         0.000012850
(PID.TID 0000.0001) GUD_INIT_FIXED: 600.    0.0058    0.0058    0.0051         0.000012850
(PID.TID 0000.0001) GUD_INIT_FIXED: 625.    0.0067    0.0067    0.0048         0.000012850
(PID.TID 0000.0001) GUD_INIT_FIXED: 650.    0.0082    0.0082    0.0045         0.000012850
(PID.TID 0000.0001) GUD_INIT_FIXED: 675.    0.0155    0.0155    0.0042         0.000012850
(PID.TID 0000.0001) GUD_INIT_FIXED: 700.    0.0066    0.0066    0.0044         0.000012850
(PID.TID 0000.0001) GUD_INIT_FIXED:
(PID.TID 0000.0001) GUD_INIT_FIXED: type   11
(PID.TID 0000.0001) GUD_INIT_FIXED:  lam ap        ap_ps     bp        bbp
(PID.TID 0000.0001) GUD_INIT_FIXED: 400.    0.0000    0.0000    0.0064         0.000012850
(PID.TID 0000.0001) GUD_INIT_FIXED: 425.    0.0000    0.0000    0.0060         0.000012850
(PID.TID 0000.0001) GUD_INIT_FIXED: 450.    0.0000    0.0000    0.0059         0.000012850
(PID.TID 0000.0001) GUD_INIT_FIXED: 475.    0.0000    0.0000    0.0058         0.000012850
(PID.TID 0000.0001) GUD_INIT_FIXED: 500.    0.0000    0.0000    0.0059         0.000012850
(PID.TID 0000.0001) GUD_INIT_FIXED: 525.    0.0000    0.0000    0.0057         0.000012850
(PID.TID 0000.0001) GUD_INIT_FIXED: 550.    0.0000    0.0000    0.0055         0.000012850
(PID.TID 0000.0001) GUD_INIT_FIXED: 575.    0.0000    0.0000    0.0053         0.000012850
(PID.TID 0000.0001) GUD_INIT_FIXED: 600.    0.0000    0.0000    0.0051         0.000012850
(PID.TID 0000.0001) GUD_INIT_FIXED: 625.    0.0000    0.0000    0.0048         0.000012850
(PID.TID 0000.0001) GUD_INIT_FIXED: 650.    0.0000    0.0000    0.0045         0.000012850
(PID.TID 0000.0001) GUD_INIT_FIXED: 675.    0.0000    0.0000    0.0042         0.000012850
(PID.TID 0000.0001) GUD_INIT_FIXED: 700.    0.0000    0.0000    0.0044         0.000012850
(PID.TID 0000.0001) GUD_INIT_FIXED:
(PID.TID 0000.0001) GUD_INIT_FIXED: type   12
(PID.TID 0000.0001) GUD_INIT_FIXED:  lam ap        ap_ps     bp        bbp
(PID.TID 0000.0001) GUD_INIT_FIXED: 400.    0.0000    0.0000    0.0000         0.000000000
(PID.TID 0000.0001) GUD_INIT_FIXED: 425.    0.0000    0.0000    0.0000         0.000000000
(PID.TID 0000.0001) GUD_INIT_FIXED: 450.    0.0000    0.0000    0.0000         0.000000000
(PID.TID 0000.0001) GUD_INIT_FIXED: 475.    0.0000    0.0000    0.0000         0.000000000
(PID.TID 0000.0001) GUD_INIT_FIXED: 500.    0.0000    0.0000    0.0000         0.000000000
(PID.TID 0000.0001) GUD_INIT_FIXED: 525.    0.0000    0.0000    0.0000         0.000000000
(PID.TID 0000.0001) GUD_INIT_FIXED: 550.    0.0000    0.0000    0.0000         0.000000000
(PID.TID 0000.0001) GUD_INIT_FIXED: 575.    0.0000    0.0000    0.0000         0.000000000
(PID.TID 0000.0001) GUD_INIT_FIXED: 600.    0.0000    0.0000    0.0000         0.000000000
(PID.TID 0000.0001) GUD_INIT_FIXED: 625.    0.0000    0.0000    0.0000         0.000000000
(PID.TID 0000.0001) GUD_INIT_FIXED: 650.    0.0000    0.0000    0.0000         0.000000000
(PID.TID 0000.0001) GUD_INIT_FIXED: 675.    0.0000    0.0000    0.0000         0.000000000
(PID.TID 0000.0001) GUD_INIT_FIXED: 700.    0.0000    0.0000    0.0000         0.000000000
(PID.TID 0000.0001) GUD_INIT_FIXED:
(PID.TID 0000.0001) GUD_INIT_FIXED: particulate spectra:
(PID.TID 0000.0001) GUD_INIT_FIXED:  lam apart          bpart          bbpart
(PID.TID 0000.0001) GUD_INIT_FIXED: 400.   2.824330E-17   4.896760E-16   2.060000E-18
(PID.TID 0000.0001) GUD_INIT_FIXED: 425.   2.384260E-17   4.697270E-16   2.060000E-18
(PID.TID 0000.0001) GUD_INIT_FIXED: 450.   1.914990E-17   4.456040E-16   2.060000E-18
(PID.TID 0000.0001) GUD_INIT_FIXED: 475.   1.545700E-17   4.237200E-16   2.060000E-18
(PID.TID 0000.0001) GUD_INIT_FIXED: 500.   1.251420E-17   4.037880E-16   2.060000E-18
(PID.TID 0000.0001) GUD_INIT_FIXED: 525.   1.014960E-17   3.856220E-16   2.060000E-18
(PID.TID 0000.0001) GUD_INIT_FIXED: 550.   8.241810E-18   3.688870E-16   2.060000E-18
(PID.TID 0000.0001) GUD_INIT_FIXED: 575.   6.696050E-18   3.535780E-16   2.060000E-18
(PID.TID 0000.0001) GUD_INIT_FIXED: 600.   5.441650E-18   3.393690E-16   2.060000E-18
(PID.TID 0000.0001) GUD_INIT_FIXED: 625.   4.422180E-18   3.262740E-16   2.060000E-18
(PID.TID 0000.0001) GUD_INIT_FIXED: 650.   3.593350E-18   3.140900E-16   2.060000E-18
(PID.TID 0000.0001) GUD_INIT_FIXED: 675.   2.918950E-18   3.027390E-16   2.060000E-18
(PID.TID 0000.0001) GUD_INIT_FIXED: 700.   2.499330E-18   2.948320E-16   2.060000E-18
(PID.TID 0000.0001) GUD_INIT_FIXED:
(PID.TID 0000.0001) GUD_INIT_FIXED: particulate spectra in phosphorus units:
(PID.TID 0000.0001) GUD_INIT_FIXED:  lam apart_P        bpart_P        bbpart_P
(PID.TID 0000.0001) GUD_INIT_FIXED: 400.    2.824330000   48.967600000 0.206000000000
(PID.TID 0000.0001) GUD_INIT_FIXED: 425.    2.384260000   46.972700000 0.206000000000
(PID.TID 0000.0001) GUD_INIT_FIXED: 450.    1.914990000   44.560400000 0.206000000000
(PID.TID 0000.0001) GUD_INIT_FIXED: 475.    1.545700000   42.372000000 0.206000000000
(PID.TID 0000.0001) GUD_INIT_FIXED: 500.    1.251420000   40.378800000 0.206000000000
(PID.TID 0000.0001) GUD_INIT_FIXED: 525.    1.014960000   38.562200000 0.206000000000
(PID.TID 0000.0001) GUD_INIT_FIXED: 550.    0.824181000   36.888700000 0.206000000000
(PID.TID 0000.0001) GUD_INIT_FIXED: 575.    0.669605000   35.357800000 0.206000000000
(PID.TID 0000.0001) GUD_INIT_FIXED: 600.    0.544165000   33.936900000 0.206000000000
(PID.TID 0000.0001) GUD_INIT_FIXED: 625.    0.442218000   32.627400000 0.206000000000
(PID.TID 0000.0001) GUD_INIT_FIXED: 650.    0.359335000   31.409000000 0.206000000000
(PID.TID 0000.0001) GUD_INIT_FIXED: 675.    0.291895000   30.273900000 0.206000000000
(PID.TID 0000.0001) GUD_INIT_FIXED: 700.    0.249933000   29.483200000 0.206000000000
(PID.TID 0000.0001) GUD_INIT_FIXED:
(PID.TID 0000.0001) GUD_RANDOM_INIT: port_rand               56   0.3052905000000000
(PID.TID 0000.0001)  GUD_INIT_FIXED: opening data.traits
(PID.TID 0000.0001)  OPEN_COPY_DATA_FILE: opening file data.traits
(PID.TID 0000.0001) // =======================================================
(PID.TID 0000.0001) // Removing comments from "data.traits"
(PID.TID 0000.0001) // =======================================================
(PID.TID 0000.0001)    1  &GUD_TRAITS
(PID.TID 0000.0001)    2  amminhib(1)= 0.,
(PID.TID 0000.0001)    3  Vmax_NH4(1)= 0.,
(PID.TID 0000.0001)    4  Vmax_NO2(1)= 0.,
(PID.TID 0000.0001)    5  Vmax_NO3(1)= 3.720236453201971e-06,
(PID.TID 0000.0001)    6  Vmax_PO4(1)= 2.325E-08,
(PID.TID 0000.0001)    7  Vmax_FeT(1)= 3.00E-09,
(PID.TID 0000.0001)    8  hillnumDIN(1)= 0.,
(PID.TID 0000.0001)    9  Qnmax(1)= 1000,
(PID.TID 0000.0001)   10  Qnmin(1)= 0.,
(PID.TID 0000.0001)   11  Qpmax(1)= 1000.,
(PID.TID 0000.0001)   12  Qpmin(1)= 0.,
(PID.TID 0000.0001)   13  Qfemax(1)= 1000.,
(PID.TID 0000.0001)   14  Qfemin(1)= 0.,
(PID.TID 0000.0001)   15  ksatNO3(1)= 0.225,
(PID.TID 0000.0001)   16  ksatPO4(1)= 3.65E-00,
(PID.TID 0000.0001)   17  ksatFeT(1)= 2.85E-04,
(PID.TID 0000.0001)   18  ksatSiO2(1)= 0.,
(PID.TID 0000.0001)   19  tauExN(1)= 3600.,
(PID.TID 0000.0001)   20  tauExP(1)= 3600.,
(PID.TID 0000.0001)   21  tauExC(1)= 3600.,
(PID.TID 0000.0001)   22  tauExFe(1)= 3600.,
(PID.TID 0000.0001)   23
(PID.TID 0000.0001)   24  Qfe_max(1) = 2.4360E-04
(PID.TID 0000.0001)   25
(PID.TID 0000.0001)   26  Qp_max(1) = 0.0052E-00
(PID.TID 0000.0001)   27
(PID.TID 0000.0001)   28
(PID.TID 0000.0001)   29  amminhib(2)= 0.,
(PID.TID 0000.0001)   30  Vmax_NH4(2)= 0.,
(PID.TID 0000.0001)   31  Vmax_NO2(2)= 0.,
(PID.TID 0000.0001)   32  Vmax_NO3(2)= 6.85E-06,
(PID.TID 0000.0001)   33  Vmax_PO4(2)= 4.28E-08,
(PID.TID 0000.0001)   34  Vmax_FeT(2)= 3.00E-09,
(PID.TID 0000.0001)   35  hillnumDIN(2)= 0.,
(PID.TID 0000.0001)   36  Qnmax(2)= 1000,
(PID.TID 0000.0001)   37  Qnmin(2)= 0.,
(PID.TID 0000.0001)   38  Qpmax(2)= 1000.,
(PID.TID 0000.0001)   39  Qpmin(2)= 0.,
(PID.TID 0000.0001)   40  Qfemax(2)= 1000.,
(PID.TID 0000.0001)   41  Qfemin(2)= 0.,
(PID.TID 0000.0001)   42  ksatNO3(2)= 0.700,
(PID.TID 0000.0001)   43  ksatPO4(2)= 9.9E-00,
(PID.TID 0000.0001)   44  ksatFeT(2)= 3.5E-04,
(PID.TID 0000.0001)   45  ksatSiO2(2)= 0.,
(PID.TID 0000.0001)   46  tauExN(2)= 3600.,
(PID.TID 0000.0001)   47  tauExP(2)= 3600.,
(PID.TID 0000.0001)   48  tauExC(2)= 3600.,
(PID.TID 0000.0001)   49  tauExFe(2)= 3600.,
(PID.TID 0000.0001)   50
(PID.TID 0000.0001)   51  Qfe_max(2) = 2.4360E-04
(PID.TID 0000.0001)   52
(PID.TID 0000.0001)   53  Qp_max(2) = 0.0194E-00
(PID.TID 0000.0001)   54
(PID.TID 0000.0001)   55  Sf(2) = 1.20,
(PID.TID 0000.0001)   56
(PID.TID 0000.0001)   57  EXPORTFRACMORT=
(PID.TID 0000.0001)   58 1.000000000000e-01,
(PID.TID 0000.0001)   59 1.000000000000e-01,
(PID.TID 0000.0001)   60
(PID.TID 0000.0001)   61  EXPORTFRACMORT2=
(PID.TID 0000.0001)   62 1.000000000000e-01,
(PID.TID 0000.0001)   63 1.000000000000e-01,
(PID.TID 0000.0001)   64
(PID.TID 0000.0001)   65  PALAT=  0.0 ,
(PID.TID 0000.0001)   66
(PID.TID 0000.0001)   67  ASSEFF=  0.1 ,
(PID.TID 0000.0001)   68
(PID.TID 0000.0001)   69  GRAZEMAX=
(PID.TID 0000.0001)   70 0.0000000000000000e+00,
(PID.TID 0000.0001)   71
(PID.TID 0000.0001)   72   EXPORTFRACPREYPRED= 1.000000000000000e-01 ,
(PID.TID 0000.0001)   73
(PID.TID 0000.0001)   74  MORT2=
(PID.TID 0000.0001)   75 0.0000000000000000e+00,
(PID.TID 0000.0001)   76 0.0000000000000000e+00,
(PID.TID 0000.0001)   77
(PID.TID 0000.0001)   78  EXPORTFRACMORT(3:4)= 0.1, 0.1,
(PID.TID 0000.0001)   79  EXPORTFRACMORT2(3:4)= 0.1, 0.1,
(PID.TID 0000.0001)   80  PALAT=    16*0.0,
(PID.TID 0000.0001)   81  PALAT(1, 3)= 1.0,
(PID.TID 0000.0001)   82  PALAT(2, 4)= 1.0,
(PID.TID 0000.0001)   83  PALAT(1, 4)= 1.0,
(PID.TID 0000.0001)   84  PALAT(2, 3)= 1.0,
(PID.TID 0000.0001)   85  ASSEFF=   16*0.7,
(PID.TID 0000.0001)   86  GRAZEMAX(3:4)=
(PID.TID 0000.0001)   87  0.0e-06,
(PID.TID 0000.0001)   88  0.0e-07,
(PID.TID 0000.0001)   89  EXPORTFRACPREYPRED= 16*0.1,
(PID.TID 0000.0001)   90  MORT(1:2) = 2*2.5e-7
(PID.TID 0000.0001)   91  MORT2(3:4)= 2*1e-6,
(PID.TID 0000.0001)   92
(PID.TID 0000.0001)   93  &
(PID.TID 0000.0001)   94
(PID.TID 0000.0001)   95  &GUD_RADTRANS_TRAITS
(PID.TID 0000.0001)   96  /
(PID.TID 0000.0001)   97
(PID.TID 0000.0001)   98
(PID.TID 0000.0001) // =======================================================
(PID.TID 0000.0001) // Parameter file "data.traits"
(PID.TID 0000.0001) // =======================================================
(PID.TID 0000.0001) > &GUD_TRAITS
(PID.TID 0000.0001) > amminhib(1)= 0.,
(PID.TID 0000.0001) > Vmax_NH4(1)= 0.,
(PID.TID 0000.0001) > Vmax_NO2(1)= 0.,
(PID.TID 0000.0001) > Vmax_NO3(1)= 3.720236453201971e-06,
(PID.TID 0000.0001) > Vmax_PO4(1)= 2.325E-08,
(PID.TID 0000.0001) > Vmax_FeT(1)= 3.00E-09,
(PID.TID 0000.0001) ># remove nitrogen uptake regulation
(PID.TID 0000.0001) > hillnumDIN(1)= 0.,
(PID.TID 0000.0001) > Qnmax(1)= 1000,
(PID.TID 0000.0001) > Qnmin(1)= 0.,
(PID.TID 0000.0001) > Qpmax(1)= 1000.,
(PID.TID 0000.0001) > Qpmin(1)= 0.,
(PID.TID 0000.0001) > Qfemax(1)= 1000.,
(PID.TID 0000.0001) > Qfemin(1)= 0.,
(PID.TID 0000.0001) > ksatNO3(1)= 0.225,
(PID.TID 0000.0001) > ksatPO4(1)= 3.65E-00,
(PID.TID 0000.0001) > ksatFeT(1)= 2.85E-04,
(PID.TID 0000.0001) > ksatSiO2(1)= 0.,
(PID.TID 0000.0001) ># time scale for excess nitrogen exudation
(PID.TID 0000.0001) > tauExN(1)= 3600.,
(PID.TID 0000.0001) > tauExP(1)= 3600.,
(PID.TID 0000.0001) > tauExC(1)= 3600.,
(PID.TID 0000.0001) > tauExFe(1)= 3600.,
(PID.TID 0000.0001) >
(PID.TID 0000.0001) >#Here Qfe_max is 0.00024
(PID.TID 0000.0001) > Qfe_max(1) = 2.4360E-04
(PID.TID 0000.0001) >
(PID.TID 0000.0001) >#adjusting Qp_max
(PID.TID 0000.0001) >#default = 25/(3.097e16) ~8.07E-16
(PID.TID 0000.0001) > Qp_max(1) = 0.0052E-00
(PID.TID 0000.0001) >
(PID.TID 0000.0001) >
(PID.TID 0000.0001) >#
(PID.TID 0000.0001) > amminhib(2)= 0.,
(PID.TID 0000.0001) > Vmax_NH4(2)= 0.,
(PID.TID 0000.0001) > Vmax_NO2(2)= 0.,
(PID.TID 0000.0001) > Vmax_NO3(2)= 6.85E-06,
(PID.TID 0000.0001) > Vmax_PO4(2)= 4.28E-08,
(PID.TID 0000.0001) > Vmax_FeT(2)= 3.00E-09,
(PID.TID 0000.0001) ># remove nitrogen uptake regulation
(PID.TID 0000.0001) > hillnumDIN(2)= 0.,
(PID.TID 0000.0001) > Qnmax(2)= 1000,
(PID.TID 0000.0001) > Qnmin(2)= 0.,
(PID.TID 0000.0001) > Qpmax(2)= 1000.,
(PID.TID 0000.0001) > Qpmin(2)= 0.,
(PID.TID 0000.0001) > Qfemax(2)= 1000.,
(PID.TID 0000.0001) > Qfemin(2)= 0.,
(PID.TID 0000.0001) > ksatNO3(2)= 0.700,
(PID.TID 0000.0001) > ksatPO4(2)= 9.9E-00,
(PID.TID 0000.0001) > ksatFeT(2)= 3.5E-04,
(PID.TID 0000.0001) > ksatSiO2(2)= 0.,
(PID.TID 0000.0001) ># time scale for excess nitrogen exudation
(PID.TID 0000.0001) > tauExN(2)= 3600.,
(PID.TID 0000.0001) > tauExP(2)= 3600.,
(PID.TID 0000.0001) > tauExC(2)= 3600.,
(PID.TID 0000.0001) > tauExFe(2)= 3600.,
(PID.TID 0000.0001) >
(PID.TID 0000.0001) >#Here Qfe_max is 0.00024
(PID.TID 0000.0001) > Qfe_max(2) = 2.4360E-04
(PID.TID 0000.0001) >
(PID.TID 0000.0001) >#adjusting Qp_max
(PID.TID 0000.0001) >#default = 25/(3.097e16) ~8.07E-16
(PID.TID 0000.0001) > Qp_max(2) = 0.0194E-00
(PID.TID 0000.0001) >
(PID.TID 0000.0001) > Sf(2) = 1.20,
(PID.TID 0000.0001) >
(PID.TID 0000.0001) > EXPORTFRACMORT=
(PID.TID 0000.0001) >1.000000000000e-01,
(PID.TID 0000.0001) >1.000000000000e-01,
(PID.TID 0000.0001) >
(PID.TID 0000.0001) > EXPORTFRACMORT2=
(PID.TID 0000.0001) >1.000000000000e-01,
(PID.TID 0000.0001) >1.000000000000e-01,
(PID.TID 0000.0001) >
(PID.TID 0000.0001) > PALAT=  0.0 ,
(PID.TID 0000.0001) >
(PID.TID 0000.0001) > ASSEFF=  0.1 ,
(PID.TID 0000.0001) >
(PID.TID 0000.0001) > GRAZEMAX=
(PID.TID 0000.0001) >0.0000000000000000e+00,
(PID.TID 0000.0001) >
(PID.TID 0000.0001) >  EXPORTFRACPREYPRED= 1.000000000000000e-01 ,
(PID.TID 0000.0001) >
(PID.TID 0000.0001) > MORT2=
(PID.TID 0000.0001) >0.0000000000000000e+00,
(PID.TID 0000.0001) >0.0000000000000000e+00,
(PID.TID 0000.0001) >
(PID.TID 0000.0001) > EXPORTFRACMORT(3:4)= 0.1, 0.1,
(PID.TID 0000.0001) >#
(PID.TID 0000.0001) > EXPORTFRACMORT2(3:4)= 0.1, 0.1,
(PID.TID 0000.0001) >#
(PID.TID 0000.0001) > PALAT=    16*0.0,
(PID.TID 0000.0001) > PALAT(1, 3)= 1.0,
(PID.TID 0000.0001) > PALAT(2, 4)= 1.0,
(PID.TID 0000.0001) > PALAT(1, 4)= 1.0,
(PID.TID 0000.0001) > PALAT(2, 3)= 1.0,
(PID.TID 0000.0001) >#
(PID.TID 0000.0001) > ASSEFF=   16*0.7,
(PID.TID 0000.0001) >#
(PID.TID 0000.0001) > GRAZEMAX(3:4)=
(PID.TID 0000.0001) > 0.0e-06,
(PID.TID 0000.0001) > 0.0e-07,
(PID.TID 0000.0001) >#
(PID.TID 0000.0001) > EXPORTFRACPREYPRED= 16*0.1,
(PID.TID 0000.0001) >#
(PID.TID 0000.0001) > MORT(1:2) = 2*2.5e-7
(PID.TID 0000.0001) > MORT2(3:4)= 2*1e-6,
(PID.TID 0000.0001) >
(PID.TID 0000.0001) > &
(PID.TID 0000.0001) >
(PID.TID 0000.0001) > &GUD_RADTRANS_TRAITS
(PID.TID 0000.0001) > /
(PID.TID 0000.0001) >
(PID.TID 0000.0001) >
(PID.TID 0000.0001) 
(PID.TID 0000.0001)  ===================================
(PID.TID 0000.0001) ------------------------------------------------------------
(PID.TID 0000.0001) DIAGNOSTICS_SET_LEVELS: done
(PID.TID 0000.0001)  Total Nb of available Diagnostics: ndiagt=  1040
(PID.TID 0000.0001)  write list of available Diagnostics to file: available_diagnostics.log
(PID.TID 0000.0001) SETDIAG: Allocate 23 x  1 Levels for Diagnostic #   183 TRAC01
(PID.TID 0000.0001) SETDIAG: Allocate 23 x  1 Levels for Diagnostic #   198 TRAC02
(PID.TID 0000.0001) SETDIAG: Allocate 23 x  1 Levels for Diagnostic #   213 TRAC03
(PID.TID 0000.0001) SETDIAG: Allocate 23 x  1 Levels for Diagnostic #   228 TRAC04
(PID.TID 0000.0001) SETDIAG: Allocate 23 x  1 Levels for Diagnostic #   243 TRAC05
(PID.TID 0000.0001) SETDIAG: Allocate 23 x  1 Levels for Diagnostic #   258 TRAC06
(PID.TID 0000.0001) SETDIAG: Allocate 23 x  1 Levels for Diagnostic #   273 TRAC07
(PID.TID 0000.0001) SETDIAG: Allocate 23 x  1 Levels for Diagnostic #   288 TRAC08
(PID.TID 0000.0001) SETDIAG: Allocate 23 x  1 Levels for Diagnostic #   303 TRAC09
(PID.TID 0000.0001) SETDIAG: Allocate 23 x  1 Levels for Diagnostic #   318 TRAC10
(PID.TID 0000.0001) SETDIAG: Allocate 23 x  1 Levels for Diagnostic #   333 TRAC11
(PID.TID 0000.0001) SETDIAG: Allocate 23 x  1 Levels for Diagnostic #   348 TRAC12
(PID.TID 0000.0001) SETDIAG: Allocate 23 x  1 Levels for Diagnostic #   363 TRAC13
(PID.TID 0000.0001) SETDIAG: Allocate 23 x  1 Levels for Diagnostic #   378 TRAC14
(PID.TID 0000.0001) SETDIAG: Allocate 23 x  1 Levels for Diagnostic #   393 TRAC15
(PID.TID 0000.0001) SETDIAG: Allocate 23 x  1 Levels for Diagnostic #   408 TRAC16
(PID.TID 0000.0001) SETDIAG: Allocate 23 x  1 Levels for Diagnostic #   423 TRAC17
(PID.TID 0000.0001) SETDIAG: Allocate 23 x  1 Levels for Diagnostic #   438 TRAC18
(PID.TID 0000.0001) SETDIAG: Allocate 23 x  1 Levels for Diagnostic #   453 TRAC19
(PID.TID 0000.0001) SETDIAG: Allocate 23 x  1 Levels for Diagnostic #   468 TRAC20
(PID.TID 0000.0001) SETDIAG: Allocate 23 x  1 Levels for Diagnostic #   483 TRAC21
(PID.TID 0000.0001) SETDIAG: Allocate 23 x  1 Levels for Diagnostic #   498 TRAC22
(PID.TID 0000.0001) SETDIAG: Allocate 23 x  1 Levels for Diagnostic #   513 TRAC23
(PID.TID 0000.0001) SETDIAG: Allocate 23 x  1 Levels for Diagnostic #   528 TRAC24
(PID.TID 0000.0001) SETDIAG: Allocate 23 x  1 Levels for Diagnostic #   543 TRAC25
(PID.TID 0000.0001) SETDIAG: Allocate 23 x  1 Levels for Diagnostic #   558 TRAC26
(PID.TID 0000.0001) SETDIAG: Allocate 23 x  1 Levels for Diagnostic #   573 TRAC27
(PID.TID 0000.0001) SETDIAG: Allocate 23 x  1 Levels for Diagnostic #   588 TRAC28
(PID.TID 0000.0001) SETDIAG: Allocate 23 x  1 Levels for Diagnostic #   603 TRAC29
(PID.TID 0000.0001) SETDIAG: Allocate 23 x  1 Levels for Diagnostic #   618 TRAC30
(PID.TID 0000.0001) SETDIAG: Allocate 23 x  1 Levels for Diagnostic #   633 TRAC31
(PID.TID 0000.0001) SETDIAG: Allocate 23 x  1 Levels for Diagnostic #   648 TRAC32
(PID.TID 0000.0001) SETDIAG: Allocate 23 x  1 Levels for Diagnostic #   663 TRAC33
(PID.TID 0000.0001) SETDIAG: Allocate 23 x  1 Levels for Diagnostic #   678 TRAC34
(PID.TID 0000.0001) SETDIAG: Allocate 23 x  1 Levels for Diagnostic #   693 TRAC35
(PID.TID 0000.0001) SETDIAG: Allocate 23 x  1 Levels for Diagnostic #   708 TRAC36
(PID.TID 0000.0001) SETDIAG: Allocate 23 x  1 Levels for Diagnostic #   990 PAR
(PID.TID 0000.0001) SETDIAG: Allocate 23 x  1 Levels for Diagnostic #   724 PP
(PID.TID 0000.0001) SETDIAG: Allocate 23 x  1 Levels for Diagnostic #   725 Nfix
(PID.TID 0000.0001) SETDIAG: Allocate 23 x  1 Levels for Diagnostic #   726 Denit
(PID.TID 0000.0001) SETDIAG: Allocate 23 x  1 Levels for Diagnostic #  1035 pH
(PID.TID 0000.0001) SETDIAG: Allocate 23 x  1 Levels for Diagnostic #  1036 pCO2
(PID.TID 0000.0001) SETDIAG: Allocate 23 x  1 Levels for Diagnostic #   728 PC0001
(PID.TID 0000.0001) SETDIAG: Allocate 23 x  1 Levels for Diagnostic #   727 PChl0001
(PID.TID 0000.0001) SETDIAG: Allocate 23 x  1 Levels for Diagnostic #   729 VN0001
(PID.TID 0000.0001) SETDIAG: Allocate 23 x  1 Levels for Diagnostic #   730 MODE0001
(PID.TID 0000.0001) SETDIAG: Allocate 23 x  1 Levels for Diagnostic #   731 Fe_C0001
(PID.TID 0000.0001) SETDIAG: Allocate 23 x  1 Levels for Diagnostic #   732 exQc0001
(PID.TID 0000.0001) SETDIAG: Allocate 23 x  1 Levels for Diagnostic #   733 PCg0001
(PID.TID 0000.0001) SETDIAG: Allocate 23 x  1 Levels for Diagnostic #   734 CChl0001
(PID.TID 0000.0001) SETDIAG: Allocate 23 x  1 Levels for Diagnostic #   735 NChl0001
(PID.TID 0000.0001) SETDIAG: Allocate 23 x  1 Levels for Diagnostic #   736 NPho0001
(PID.TID 0000.0001) SETDIAG: Allocate 23 x  1 Levels for Diagnostic #   737 NSyn0001
(PID.TID 0000.0001) SETDIAG: Allocate 23 x  1 Levels for Diagnostic #   738 NPrn0001
(PID.TID 0000.0001) SETDIAG: Allocate 23 x  1 Levels for Diagnostic #   739 NRNA0001
(PID.TID 0000.0001) SETDIAG: Allocate 23 x  1 Levels for Diagnostic #   740 NDNA0001
(PID.TID 0000.0001) SETDIAG: Allocate 23 x  1 Levels for Diagnostic #   741 NSTO0001
(PID.TID 0000.0001) SETDIAG: Allocate 23 x  1 Levels for Diagnostic #   742 NEXC0001
(PID.TID 0000.0001) SETDIAG: Allocate 23 x  1 Levels for Diagnostic #   743 PRNA0001
(PID.TID 0000.0001) SETDIAG: Allocate 23 x  1 Levels for Diagnostic #   744 PDNA0001
(PID.TID 0000.0001) SETDIAG: Allocate 23 x  1 Levels for Diagnostic #   745 PTHY0001
(PID.TID 0000.0001) SETDIAG: Allocate 23 x  1 Levels for Diagnostic #   746 PCON0001
(PID.TID 0000.0001) SETDIAG: Allocate 23 x  1 Levels for Diagnostic #   747 PSTO0001
(PID.TID 0000.0001) SETDIAG: Allocate 23 x  1 Levels for Diagnostic #   748 PEXC0001
(PID.TID 0000.0001) SETDIAG: Allocate 23 x  1 Levels for Diagnostic #   749 FPHO0001
(PID.TID 0000.0001) SETDIAG: Allocate 23 x  1 Levels for Diagnostic #   750 FSTO0001
(PID.TID 0000.0001) SETDIAG: Allocate 23 x  1 Levels for Diagnostic #   751 FEXC0001
(PID.TID 0000.0001) SETDIAG: Allocate 23 x  1 Levels for Diagnostic #   759 CChl0002
(PID.TID 0000.0001) SETDIAG: Allocate 23 x  1 Levels for Diagnostic #   760 NChl0002
(PID.TID 0000.0001) SETDIAG: Allocate 23 x  1 Levels for Diagnostic #   761 NPho0002
(PID.TID 0000.0001) SETDIAG: Allocate 23 x  1 Levels for Diagnostic #   762 NSyn0002
(PID.TID 0000.0001) SETDIAG: Allocate 23 x  1 Levels for Diagnostic #   763 NPrn0002
(PID.TID 0000.0001) SETDIAG: Allocate 23 x  1 Levels for Diagnostic #   764 NRNA0002
(PID.TID 0000.0001) SETDIAG: Allocate 23 x  1 Levels for Diagnostic #   765 NDNA0002
(PID.TID 0000.0001) SETDIAG: Allocate 23 x  1 Levels for Diagnostic #   766 NSTO0002
(PID.TID 0000.0001) SETDIAG: Allocate 23 x  1 Levels for Diagnostic #   767 NEXC0002
(PID.TID 0000.0001) SETDIAG: Allocate 23 x  1 Levels for Diagnostic #   768 PRNA0002
(PID.TID 0000.0001) SETDIAG: Allocate 23 x  1 Levels for Diagnostic #   769 PDNA0002
(PID.TID 0000.0001) SETDIAG: Allocate 23 x  1 Levels for Diagnostic #   770 PTHY0002
(PID.TID 0000.0001) SETDIAG: Allocate 23 x  1 Levels for Diagnostic #   771 PCON0002
(PID.TID 0000.0001) SETDIAG: Allocate 23 x  1 Levels for Diagnostic #   772 PSTO0002
(PID.TID 0000.0001) SETDIAG: Allocate 23 x  1 Levels for Diagnostic #   773 PEXC0002
(PID.TID 0000.0001) SETDIAG: Allocate 23 x  1 Levels for Diagnostic #   774 FPHO0002
(PID.TID 0000.0001) SETDIAG: Allocate 23 x  1 Levels for Diagnostic #   775 FSTO0002
(PID.TID 0000.0001) SETDIAG: Allocate 23 x  1 Levels for Diagnostic #   776 FEXC0002
(PID.TID 0000.0001) SETDIAG: Allocate 23 x  1 Levels for Diagnostic #   753 PC0002
(PID.TID 0000.0001) SETDIAG: Allocate 23 x  1 Levels for Diagnostic #   752 PChl0002
(PID.TID 0000.0001) SETDIAG: Allocate 23 x  1 Levels for Diagnostic #   754 VN0002
(PID.TID 0000.0001) SETDIAG: Allocate 23 x  1 Levels for Diagnostic #   755 MODE0002
(PID.TID 0000.0001) SETDIAG: Allocate 23 x  1 Levels for Diagnostic #   756 Fe_C0002
(PID.TID 0000.0001) SETDIAG: Allocate 23 x  1 Levels for Diagnostic #   757 exQc0002
(PID.TID 0000.0001) SETDIAG: Allocate 23 x  1 Levels for Diagnostic #   758 PCg0002
(PID.TID 0000.0001) SETDIAG: Allocate 23 x  1 Levels for Diagnostic #   784 a001
(PID.TID 0000.0001) SETDIAG: Allocate 23 x  1 Levels for Diagnostic #   800 a002
(PID.TID 0000.0001) SETDIAG: Allocate 23 x  1 Levels for Diagnostic #   816 a003
(PID.TID 0000.0001) SETDIAG: Allocate 23 x  1 Levels for Diagnostic #   832 a004
(PID.TID 0000.0001) SETDIAG: Allocate 23 x  1 Levels for Diagnostic #   848 a005
(PID.TID 0000.0001) SETDIAG: Allocate 23 x  1 Levels for Diagnostic #   864 a006
(PID.TID 0000.0001) SETDIAG: Allocate 23 x  1 Levels for Diagnostic #   880 a007
(PID.TID 0000.0001) SETDIAG: Allocate 23 x  1 Levels for Diagnostic #   896 a008
(PID.TID 0000.0001) SETDIAG: Allocate 23 x  1 Levels for Diagnostic #   912 a009
(PID.TID 0000.0001) SETDIAG: Allocate 23 x  1 Levels for Diagnostic #   928 a010
(PID.TID 0000.0001) SETDIAG: Allocate 23 x  1 Levels for Diagnostic #   944 a011
(PID.TID 0000.0001) SETDIAG: Allocate 23 x  1 Levels for Diagnostic #   960 a012
(PID.TID 0000.0001) SETDIAG: Allocate 23 x  1 Levels for Diagnostic #   976 a013
(PID.TID 0000.0001) SETDIAG: Allocate 23 x  1 Levels for Diagnostic #   785 bt001
(PID.TID 0000.0001) SETDIAG: Allocate 23 x  1 Levels for Diagnostic #   801 bt002
(PID.TID 0000.0001) SETDIAG: Allocate 23 x  1 Levels for Diagnostic #   817 bt003
(PID.TID 0000.0001) SETDIAG: Allocate 23 x  1 Levels for Diagnostic #   833 bt004
(PID.TID 0000.0001) SETDIAG: Allocate 23 x  1 Levels for Diagnostic #   849 bt005
(PID.TID 0000.0001) SETDIAG: Allocate 23 x  1 Levels for Diagnostic #   865 bt006
(PID.TID 0000.0001) SETDIAG: Allocate 23 x  1 Levels for Diagnostic #   881 bt007
(PID.TID 0000.0001) SETDIAG: Allocate 23 x  1 Levels for Diagnostic #   897 bt008
(PID.TID 0000.0001) SETDIAG: Allocate 23 x  1 Levels for Diagnostic #   913 bt009
(PID.TID 0000.0001) SETDIAG: Allocate 23 x  1 Levels for Diagnostic #   929 bt010
(PID.TID 0000.0001) SETDIAG: Allocate 23 x  1 Levels for Diagnostic #   945 bt011
(PID.TID 0000.0001) SETDIAG: Allocate 23 x  1 Levels for Diagnostic #   961 bt012
(PID.TID 0000.0001) SETDIAG: Allocate 23 x  1 Levels for Diagnostic #   977 bt013
(PID.TID 0000.0001) SETDIAG: Allocate 23 x  1 Levels for Diagnostic #   786 bb001
(PID.TID 0000.0001) SETDIAG: Allocate 23 x  1 Levels for Diagnostic #   802 bb002
(PID.TID 0000.0001) SETDIAG: Allocate 23 x  1 Levels for Diagnostic #   818 bb003
(PID.TID 0000.0001) SETDIAG: Allocate 23 x  1 Levels for Diagnostic #   834 bb004
(PID.TID 0000.0001) SETDIAG: Allocate 23 x  1 Levels for Diagnostic #   850 bb005
(PID.TID 0000.0001) SETDIAG: Allocate 23 x  1 Levels for Diagnostic #   882 bb007
(PID.TID 0000.0001) SETDIAG: Allocate 23 x  1 Levels for Diagnostic #   898 bb008
(PID.TID 0000.0001) SETDIAG: Allocate 23 x  1 Levels for Diagnostic #   914 bb009
(PID.TID 0000.0001) SETDIAG: Allocate 23 x  1 Levels for Diagnostic #   930 bb010
(PID.TID 0000.0001) SETDIAG: Allocate 23 x  1 Levels for Diagnostic #   946 bb011
(PID.TID 0000.0001) SETDIAG: Allocate 23 x  1 Levels for Diagnostic #   962 bb012
(PID.TID 0000.0001) SETDIAG: Allocate 23 x  1 Levels for Diagnostic #   978 bb013
(PID.TID 0000.0001) SETDIAG: Allocate 23 x  1 Levels for Diagnostic #   793 aCDOM001
(PID.TID 0000.0001) SETDIAG: Allocate 23 x  1 Levels for Diagnostic #   809 aCDOM002
(PID.TID 0000.0001) SETDIAG: Allocate 23 x  1 Levels for Diagnostic #   825 aCDOM003
(PID.TID 0000.0001) SETDIAG: Allocate 23 x  1 Levels for Diagnostic #   841 aCDOM004
(PID.TID 0000.0001) SETDIAG: Allocate 23 x  1 Levels for Diagnostic #   857 aCDOM005
(PID.TID 0000.0001) SETDIAG: Allocate 23 x  1 Levels for Diagnostic #   873 aCDOM006
(PID.TID 0000.0001) SETDIAG: Allocate 23 x  1 Levels for Diagnostic #   889 aCDOM007
(PID.TID 0000.0001) SETDIAG: Allocate 23 x  1 Levels for Diagnostic #   905 aCDOM008
(PID.TID 0000.0001) SETDIAG: Allocate 23 x  1 Levels for Diagnostic #   921 aCDOM009
(PID.TID 0000.0001) SETDIAG: Allocate 23 x  1 Levels for Diagnostic #   937 aCDOM010
(PID.TID 0000.0001) SETDIAG: Allocate 23 x  1 Levels for Diagnostic #   953 aCDOM011
(PID.TID 0000.0001) SETDIAG: Allocate 23 x  1 Levels for Diagnostic #   969 aCDOM012
(PID.TID 0000.0001) SETDIAG: Allocate 23 x  1 Levels for Diagnostic #   985 aCDOM013
(PID.TID 0000.0001) SETDIAG: Allocate 23 x  1 Levels for Diagnostic #   866 bb006
(PID.TID 0000.0001) SETDIAG: Allocate 23 x  1 Levels for Diagnostic #   779 Ed001
(PID.TID 0000.0001) SETDIAG: Allocate 23 x  1 Levels for Diagnostic #   795 Ed002
(PID.TID 0000.0001) SETDIAG: Allocate 23 x  1 Levels for Diagnostic #   811 Ed003
(PID.TID 0000.0001) SETDIAG: Allocate 23 x  1 Levels for Diagnostic #   827 Ed004
(PID.TID 0000.0001) SETDIAG: Allocate 23 x  1 Levels for Diagnostic #   843 Ed005
(PID.TID 0000.0001) SETDIAG: Allocate 23 x  1 Levels for Diagnostic #   859 Ed006
(PID.TID 0000.0001) SETDIAG: Allocate 23 x  1 Levels for Diagnostic #   875 Ed007
(PID.TID 0000.0001) SETDIAG: Allocate 23 x  1 Levels for Diagnostic #   891 Ed008
(PID.TID 0000.0001) SETDIAG: Allocate 23 x  1 Levels for Diagnostic #   907 Ed009
(PID.TID 0000.0001) SETDIAG: Allocate 23 x  1 Levels for Diagnostic #   923 Ed010
(PID.TID 0000.0001) SETDIAG: Allocate 23 x  1 Levels for Diagnostic #   939 Ed011
(PID.TID 0000.0001) SETDIAG: Allocate 23 x  1 Levels for Diagnostic #   955 Ed012
(PID.TID 0000.0001) SETDIAG: Allocate 23 x  1 Levels for Diagnostic #   971 Ed013
(PID.TID 0000.0001) SETDIAG: Allocate 23 x  1 Levels for Diagnostic #   780 Es001
(PID.TID 0000.0001) SETDIAG: Allocate 23 x  1 Levels for Diagnostic #   796 Es002
(PID.TID 0000.0001) SETDIAG: Allocate 23 x  1 Levels for Diagnostic #   812 Es003
(PID.TID 0000.0001) SETDIAG: Allocate 23 x  1 Levels for Diagnostic #   828 Es004
(PID.TID 0000.0001) SETDIAG: Allocate 23 x  1 Levels for Diagnostic #   844 Es005
(PID.TID 0000.0001) SETDIAG: Allocate 23 x  1 Levels for Diagnostic #   860 Es006
(PID.TID 0000.0001) SETDIAG: Allocate 23 x  1 Levels for Diagnostic #   876 Es007
(PID.TID 0000.0001) SETDIAG: Allocate 23 x  1 Levels for Diagnostic #   892 Es008
(PID.TID 0000.0001) SETDIAG: Allocate 23 x  1 Levels for Diagnostic #   908 Es009
(PID.TID 0000.0001) SETDIAG: Allocate 23 x  1 Levels for Diagnostic #   924 Es010
(PID.TID 0000.0001) SETDIAG: Allocate 23 x  1 Levels for Diagnostic #   940 Es011
(PID.TID 0000.0001) SETDIAG: Allocate 23 x  1 Levels for Diagnostic #   956 Es012
(PID.TID 0000.0001) SETDIAG: Allocate 23 x  1 Levels for Diagnostic #   972 Es013
(PID.TID 0000.0001) SETDIAG: Allocate 23 x  1 Levels for Diagnostic #   781 Eu001
(PID.TID 0000.0001) SETDIAG: Allocate 23 x  1 Levels for Diagnostic #   797 Eu002
(PID.TID 0000.0001) SETDIAG: Allocate 23 x  1 Levels for Diagnostic #   813 Eu003
(PID.TID 0000.0001) SETDIAG: Allocate 23 x  1 Levels for Diagnostic #   829 Eu004
(PID.TID 0000.0001) SETDIAG: Allocate 23 x  1 Levels for Diagnostic #   845 Eu005
(PID.TID 0000.0001) SETDIAG: Allocate 23 x  1 Levels for Diagnostic #   861 Eu006
(PID.TID 0000.0001) SETDIAG: Allocate 23 x  1 Levels for Diagnostic #   877 Eu007
(PID.TID 0000.0001) SETDIAG: Allocate 23 x  1 Levels for Diagnostic #   893 Eu008
(PID.TID 0000.0001) SETDIAG: Allocate 23 x  1 Levels for Diagnostic #   909 Eu009
(PID.TID 0000.0001) SETDIAG: Allocate 23 x  1 Levels for Diagnostic #   925 Eu010
(PID.TID 0000.0001) SETDIAG: Allocate 23 x  1 Levels for Diagnostic #   941 Eu011
(PID.TID 0000.0001) SETDIAG: Allocate 23 x  1 Levels for Diagnostic #   957 Eu012
(PID.TID 0000.0001) SETDIAG: Allocate 23 x  1 Levels for Diagnostic #   973 Eu013
(PID.TID 0000.0001) SETDIAG: Allocate 23 x  1 Levels for Diagnostic #   782 PAR001
(PID.TID 0000.0001) SETDIAG: Allocate 23 x  1 Levels for Diagnostic #   798 PAR002
(PID.TID 0000.0001) SETDIAG: Allocate 23 x  1 Levels for Diagnostic #   814 PAR003
(PID.TID 0000.0001) SETDIAG: Allocate 23 x  1 Levels for Diagnostic #   830 PAR004
(PID.TID 0000.0001) SETDIAG: Allocate 23 x  1 Levels for Diagnostic #   846 PAR005
(PID.TID 0000.0001) SETDIAG: Allocate 23 x  1 Levels for Diagnostic #   862 PAR006
(PID.TID 0000.0001) SETDIAG: Allocate 23 x  1 Levels for Diagnostic #   878 PAR007
(PID.TID 0000.0001) SETDIAG: Allocate 23 x  1 Levels for Diagnostic #   894 PAR008
(PID.TID 0000.0001) SETDIAG: Allocate 23 x  1 Levels for Diagnostic #   910 PAR009
(PID.TID 0000.0001) SETDIAG: Allocate 23 x  1 Levels for Diagnostic #   926 PAR010
(PID.TID 0000.0001) SETDIAG: Allocate 23 x  1 Levels for Diagnostic #   942 PAR011
(PID.TID 0000.0001) SETDIAG: Allocate 23 x  1 Levels for Diagnostic #   958 PAR012
(PID.TID 0000.0001) SETDIAG: Allocate 23 x  1 Levels for Diagnostic #   974 PAR013
(PID.TID 0000.0001) SETDIAG: Allocate  1 x  1 Levels for Diagnostic #  1037 fluxCO2
(PID.TID 0000.0001) SETDIAG: Allocate  1 x  1 Levels for Diagnostic #  1038 gDICsurf
(PID.TID 0000.0001) SETDIAG: Allocate  1 x  1 Levels for Diagnostic #  1039 gALKsurf
(PID.TID 0000.0001) SETDIAG: Allocate  1 x  1 Levels for Diagnostic #  1040 gO2surf
(PID.TID 0000.0001)   space allocated for all diagnostics:    4512 levels
(PID.TID 0000.0001) DIAGNOSTICS_SET_POINTERS: Set levels for Outp.Stream: 3d
(PID.TID 0000.0001)  Levels:       1.   2.   3.   4.   5.   6.   7.   8.   9.  10.  11.  12.  13.  14.  15.  16.  17.  18.  19.  20.
(PID.TID 0000.0001)  Levels:      21.  22.  23.
(PID.TID 0000.0001) DIAGNOSTICS_SET_POINTERS: Set levels for Outp.Stream: iops
(PID.TID 0000.0001)  Levels:       1.   2.   3.   4.   5.   6.   7.   8.   9.  10.  11.  12.  13.  14.  15.  16.  17.  18.  19.  20.
(PID.TID 0000.0001)  Levels:      21.  22.  23.
(PID.TID 0000.0001) DIAGNOSTICS_SET_POINTERS: Set levels for Outp.Stream: par
(PID.TID 0000.0001)  Levels:       1.   2.   3.   4.   5.   6.   7.   8.   9.  10.  11.  12.  13.  14.  15.  16.  17.  18.  19.  20.
(PID.TID 0000.0001)  Levels:      21.  22.  23.
(PID.TID 0000.0001) DIAGNOSTICS_SET_POINTERS: Set levels for Outp.Stream: 2d
(PID.TID 0000.0001)  Levels:       1.
(PID.TID 0000.0001) DIAGNOSTICS_SET_POINTERS: done
(PID.TID 0000.0001) ------------------------------------------------------------
(PID.TID 0000.0001) DIAGSTATS_SET_REGIONS: define no region
(PID.TID 0000.0001) ------------------------------------------------------------
(PID.TID 0000.0001) SETDIAG: Allocate 23 Levels for Stats-Diag #   724 PP
(PID.TID 0000.0001) SETDIAG: Allocate 23 Levels for Stats-Diag #   725 Nfix
(PID.TID 0000.0001) SETDIAG: Allocate 23 Levels for Stats-Diag #   726 Denit
(PID.TID 0000.0001)   space allocated for all stats-diags:      69 levels
(PID.TID 0000.0001) DIAGSTATS_SET_POINTERS: done
(PID.TID 0000.0001) ------------------------------------------------------------
(PID.TID 0000.0001) DIAGSTATS_INI_IO: open file: statsPP.0000000000.txt , unit=     9
(PID.TID 0000.0001) DIAGSTATS_INI_IO: open file: statsNfix.0000000000.txt , unit=    10
(PID.TID 0000.0001) DIAGSTATS_INI_IO: open file: statsDenit.0000000000.txt , unit=    16
(PID.TID 0000.0001) %MON fCori_max                    =   1.4340032469287E-04
(PID.TID 0000.0001) %MON fCori_min                    =  -1.4340032469287E-04
(PID.TID 0000.0001) %MON fCori_mean                   =  -2.3852447794681E-20
(PID.TID 0000.0001) %MON fCori_sd                     =   9.6604363594752E-05
(PID.TID 0000.0001) %MON fCoriG_max                   =   1.4316293338671E-04
(PID.TID 0000.0001) %MON fCoriG_min                   =  -1.4362679550910E-04
(PID.TID 0000.0001) %MON fCoriG_mean                  =  -8.9766747193168E-07
(PID.TID 0000.0001) %MON fCoriG_sd                    =   9.6601219725587E-05
(PID.TID 0000.0001) %MON fCoriCos_max                 =   1.4583691710542E-04
(PID.TID 0000.0001) %MON fCoriCos_min                 =   2.6577679221448E-05
(PID.TID 0000.0001) %MON fCoriCos_mean                =   1.0286642071176E-04
(PID.TID 0000.0001) %MON fCoriCos_sd                  =   3.6825569638793E-05
(PID.TID 0000.0001) INI_CG2D: CG2D normalisation factor =  5.6948601716296077E-05
(PID.TID 0000.0001) 
(PID.TID 0000.0001) // =======================================================
(PID.TID 0000.0001) // Model configuration
(PID.TID 0000.0001) // =======================================================
(PID.TID 0000.0001) //
(PID.TID 0000.0001) // "Physical" paramters ( PARM01 in namelist )
(PID.TID 0000.0001) //
(PID.TID 0000.0001) buoyancyRelation = /* Type of relation to get Buoyancy */
(PID.TID 0000.0001)               'OCEANIC'
(PID.TID 0000.0001)     ;
(PID.TID 0000.0001) fluidIsAir   =  /* fluid major constituent is Air */
(PID.TID 0000.0001)                   F
(PID.TID 0000.0001)     ;
(PID.TID 0000.0001) fluidIsWater =  /* fluid major constituent is Water */
(PID.TID 0000.0001)                   T
(PID.TID 0000.0001)     ;
(PID.TID 0000.0001) usingPCoords =  /* use p (or p*) vertical coordinate */
(PID.TID 0000.0001)                   F
(PID.TID 0000.0001)     ;
(PID.TID 0000.0001) usingZCoords =  /* use z (or z*) vertical coordinate */
(PID.TID 0000.0001)                   T
(PID.TID 0000.0001)     ;
(PID.TID 0000.0001) tRef =   /* Reference temperature profile ( oC or K ) */
(PID.TID 0000.0001)                 2.400000000000000E+01,      /* K =  1 */
(PID.TID 0000.0001)                 2.300000000000000E+01,      /* K =  2 */
(PID.TID 0000.0001)                 2.200000000000000E+01,      /* K =  3 */
(PID.TID 0000.0001)                 2.100000000000000E+01,      /* K =  4 */
(PID.TID 0000.0001)                 2.000000000000000E+01,      /* K =  5 */
(PID.TID 0000.0001)                 1.900000000000000E+01,      /* K =  6 */
(PID.TID 0000.0001)                 1.800000000000000E+01,      /* K =  7 */
(PID.TID 0000.0001)                 1.700000000000000E+01,      /* K =  8 */
(PID.TID 0000.0001)                 1.600000000000000E+01,      /* K =  9 */
(PID.TID 0000.0001)                 1.500000000000000E+01,      /* K = 10 */
(PID.TID 0000.0001)                 1.400000000000000E+01,      /* K = 11 */
(PID.TID 0000.0001)                 1.300000000000000E+01,      /* K = 12 */
(PID.TID 0000.0001)                 1.200000000000000E+01,      /* K = 13 */
(PID.TID 0000.0001)                 1.100000000000000E+01,      /* K = 14 */
(PID.TID 0000.0001)                 1.000000000000000E+01,      /* K = 15 */
(PID.TID 0000.0001)                 9.000000000000000E+00,      /* K = 16 */
(PID.TID 0000.0001)                 8.000000000000000E+00,      /* K = 17 */
(PID.TID 0000.0001)                 7.000000000000000E+00,      /* K = 18 */
(PID.TID 0000.0001)                 6.000000000000000E+00,      /* K = 19 */
(PID.TID 0000.0001)                 5.000000000000000E+00,      /* K = 20 */
(PID.TID 0000.0001)                 4.000000000000000E+00,      /* K = 21 */
(PID.TID 0000.0001)                 3.000000000000000E+00,      /* K = 22 */
(PID.TID 0000.0001)                 2.000000000000000E+00       /* K = 23 */
(PID.TID 0000.0001)     ;
(PID.TID 0000.0001) sRef =   /* Reference salinity profile ( psu ) */
(PID.TID 0000.0001)                 3.465000000000000E+01,      /* K =  1 */
(PID.TID 0000.0001)                 3.475000000000000E+01,      /* K =  2 */
(PID.TID 0000.0001)                 3.482000000000000E+01,      /* K =  3 */
(PID.TID 0000.0001)                 3.487000000000000E+01,      /* K =  4 */
(PID.TID 0000.0001)     2 @  3.490000000000000E+01,             /* K =  5:  6 */
(PID.TID 0000.0001)                 3.486000000000000E+01,      /* K =  7 */
(PID.TID 0000.0001)                 3.478000000000000E+01,      /* K =  8 */
(PID.TID 0000.0001)                 3.469000000000000E+01,      /* K =  9 */
(PID.TID 0000.0001)                 3.460000000000000E+01,      /* K = 10 */
(PID.TID 0000.0001)                 3.458000000000000E+01,      /* K = 11 */
(PID.TID 0000.0001)                 3.462000000000000E+01,      /* K = 12 */
(PID.TID 0000.0001)                 3.468000000000000E+01,      /* K = 13 */
(PID.TID 0000.0001)                 3.472000000000000E+01,      /* K = 14 */
(PID.TID 0000.0001)                 3.473000000000000E+01,      /* K = 15 */
(PID.TID 0000.0001)                 3.474000000000000E+01,      /* K = 16 */
(PID.TID 0000.0001)     2 @  3.473000000000000E+01,             /* K = 17: 18 */
(PID.TID 0000.0001)     2 @  3.472000000000000E+01,             /* K = 19: 20 */
(PID.TID 0000.0001)                 3.471000000000000E+01,      /* K = 21 */
(PID.TID 0000.0001)                 3.470000000000000E+01,      /* K = 22 */
(PID.TID 0000.0001)                 3.469000000000000E+01       /* K = 23 */
(PID.TID 0000.0001)     ;
(PID.TID 0000.0001) useStrainTensionVisc= /* Use StrainTension Form of Viscous Operator */
(PID.TID 0000.0001)                   F
(PID.TID 0000.0001)     ;
(PID.TID 0000.0001) useVariableVisc = /* Use variable horizontal viscosity */
(PID.TID 0000.0001)                   F
(PID.TID 0000.0001)     ;
(PID.TID 0000.0001) useHarmonicVisc = /* Use harmonic horizontal viscosity */
(PID.TID 0000.0001)                   F
(PID.TID 0000.0001)     ;
(PID.TID 0000.0001) useBiharmonicVisc= /* Use biharmonic horiz.  viscosity */
(PID.TID 0000.0001)                   F
(PID.TID 0000.0001)     ;
(PID.TID 0000.0001) useSmag3D = /* Use isotropic 3-D Smagorinsky viscosity */
(PID.TID 0000.0001)                   F
(PID.TID 0000.0001)     ;
(PID.TID 0000.0001) viscAh  =   /* Lateral harmonic viscosity ( m^2/s ) */
(PID.TID 0000.0001)                 1.000000000000000E+04
(PID.TID 0000.0001)     ;
(PID.TID 0000.0001) viscA4  =   /* Lateral biharmonic viscosity ( m^4/s ) */
(PID.TID 0000.0001)                 0.000000000000000E+00
(PID.TID 0000.0001)     ;
(PID.TID 0000.0001) no_slip_sides =  /* Viscous BCs: No-slip sides */
(PID.TID 0000.0001)                   F
(PID.TID 0000.0001)     ;
(PID.TID 0000.0001) sideDragFactor = /* side-drag scaling factor (non-dim) */
(PID.TID 0000.0001)                 2.000000000000000E+00
(PID.TID 0000.0001)     ;
(PID.TID 0000.0001) viscArNr = /* vertical profile of vertical viscosity ( m^2/s )*/
(PID.TID 0000.0001)    23 @  1.000000000000000E-03              /* K =  1: 23 */
(PID.TID 0000.0001)     ;
(PID.TID 0000.0001) no_slip_bottom =  /* Viscous BCs: No-slip bottom */
(PID.TID 0000.0001)                   T
(PID.TID 0000.0001)     ;
(PID.TID 0000.0001) bottomVisc_pCell = /* Partial-cell in bottom Visc. BC */
(PID.TID 0000.0001)                   F
(PID.TID 0000.0001)     ;
(PID.TID 0000.0001) bottomDragLinear = /* linear bottom-drag coefficient ( m/s ) */
(PID.TID 0000.0001)                 0.000000000000000E+00
(PID.TID 0000.0001)     ;
(PID.TID 0000.0001) bottomDragQuadratic = /* quadratic bottom-drag coefficient (-) */
(PID.TID 0000.0001)                 0.000000000000000E+00
(PID.TID 0000.0001)     ;
(PID.TID 0000.0001) selectBotDragQuadr = /* select quadratic bottom drag options */
(PID.TID 0000.0001)                      -1
(PID.TID 0000.0001)     ;
(PID.TID 0000.0001) diffKhT =   /* Laplacian diffusion of heat laterally ( m^2/s ) */
(PID.TID 0000.0001)                 1.000000000000000E+02
(PID.TID 0000.0001)     ;
(PID.TID 0000.0001) diffK4T =   /* Biharmonic diffusion of heat laterally ( m^4/s ) */
(PID.TID 0000.0001)                 0.000000000000000E+00
(PID.TID 0000.0001)     ;
(PID.TID 0000.0001) diffKhS =   /* Laplacian diffusion of salt laterally ( m^2/s ) */
(PID.TID 0000.0001)                 1.000000000000000E+02
(PID.TID 0000.0001)     ;
(PID.TID 0000.0001) diffK4S =   /* Biharmonic diffusion of salt laterally ( m^4/s ) */
(PID.TID 0000.0001)                 0.000000000000000E+00
(PID.TID 0000.0001)     ;
(PID.TID 0000.0001) diffKrNrT = /* vertical profile of vertical diffusion of Temp ( m^2/s )*/
(PID.TID 0000.0001)    23 @  1.000000000000000E-05              /* K =  1: 23 */
(PID.TID 0000.0001)     ;
(PID.TID 0000.0001) diffKrNrS = /* vertical profile of vertical diffusion of Salt ( m^2/s )*/
(PID.TID 0000.0001)    23 @  1.000000000000000E-05              /* K =  1: 23 */
(PID.TID 0000.0001)     ;
(PID.TID 0000.0001) diffKrBL79surf = /* Surface diffusion for Bryan and Lewis 79 ( m^2/s ) */
(PID.TID 0000.0001)                 0.000000000000000E+00
(PID.TID 0000.0001)     ;
(PID.TID 0000.0001) diffKrBL79deep = /* Deep diffusion for Bryan and Lewis 1979 ( m^2/s ) */
(PID.TID 0000.0001)                 0.000000000000000E+00
(PID.TID 0000.0001)     ;
(PID.TID 0000.0001) diffKrBL79scl = /* Depth scale for Bryan and Lewis 1979 ( m ) */
(PID.TID 0000.0001)                 2.000000000000000E+02
(PID.TID 0000.0001)     ;
(PID.TID 0000.0001) diffKrBL79Ho = /* Turning depth for Bryan and Lewis 1979 ( m ) */
(PID.TID 0000.0001)                -2.000000000000000E+03
(PID.TID 0000.0001)     ;
(PID.TID 0000.0001) ivdc_kappa = /* Implicit Vertical Diffusivity for Convection ( m^2/s) */
(PID.TID 0000.0001)                 0.000000000000000E+00
(PID.TID 0000.0001)     ;
(PID.TID 0000.0001) hMixCriteria=  /* Criteria for mixed-layer diagnostic */
(PID.TID 0000.0001)                -8.000000000000000E-01
(PID.TID 0000.0001)     ;
(PID.TID 0000.0001) dRhoSmall =  /* Parameter for mixed-layer diagnostic */
(PID.TID 0000.0001)                 1.000000000000000E-06
(PID.TID 0000.0001)     ;
(PID.TID 0000.0001) hMixSmooth=  /* Smoothing parameter for mixed-layer diagnostic */
(PID.TID 0000.0001)                 0.000000000000000E+00
(PID.TID 0000.0001)     ;
(PID.TID 0000.0001) eosType =  /* Type of Equation of State */
(PID.TID 0000.0001)               'POLY3 '
(PID.TID 0000.0001)     ;
(PID.TID 0000.0001) Polynomial EQS parameters ( from POLY3.COEFFS ):
(PID.TID 0000.0001)   1  13.499  32.600  24.480  -0.201   0.771  -0.005  -0.002   0.000   0.000   0.000   0.000   0.000
(PID.TID 0000.0001)   2  13.498  32.600  24.525  -0.202   0.771  -0.005  -0.002   0.000   0.000   0.000   0.000   0.000
(PID.TID 0000.0001)   3  13.496  32.600  24.581  -0.202   0.771  -0.005  -0.002   0.000   0.000   0.000   0.000   0.000
(PID.TID 0000.0001)   4  13.494  32.600  24.660  -0.202   0.771  -0.005  -0.002   0.000   0.000   0.000   0.000   0.000
(PID.TID 0000.0001)   5  13.491  32.600  24.750  -0.203   0.771  -0.005  -0.002   0.000   0.000   0.000   0.000   0.000
(PID.TID 0000.0001)   6  13.488  32.600  24.851  -0.203   0.770  -0.005  -0.002   0.000   0.000   0.000   0.000   0.000
(PID.TID 0000.0001)   7  13.484  32.600  24.985  -0.204   0.770  -0.005  -0.002   0.000   0.000   0.000   0.000   0.000
(PID.TID 0000.0001)   8  13.478  32.600  25.176  -0.204   0.770  -0.005  -0.002   0.000   0.000   0.000   0.000   0.000
(PID.TID 0000.0001)   9  13.469  32.600  25.456  -0.205   0.769  -0.005  -0.002   0.000   0.000   0.000   0.000   0.000
(PID.TID 0000.0001)  10   8.467  35.150  28.748  -0.163   0.781  -0.005  -0.002   0.001   0.000   0.000   0.000   0.000
(PID.TID 0000.0001)  11   8.454  35.150  29.315  -0.166   0.780  -0.005  -0.002   0.001   0.000   0.000   0.000   0.000
(PID.TID 0000.0001)  12   5.946  34.900  30.300  -0.143   0.785  -0.006  -0.002   0.001   0.000   0.000   0.000   0.000
(PID.TID 0000.0001)  13   4.433  34.900  31.591  -0.132   0.786  -0.006  -0.003   0.000   0.000   0.000   0.000   0.000
(PID.TID 0000.0001)  14   3.909  34.750  32.966  -0.134   0.785  -0.006  -0.003   0.000   0.000   0.000   0.000   0.000
(PID.TID 0000.0001)  15   1.899  34.800  35.002  -0.121   0.787  -0.006  -0.003  -0.000   0.000   0.000   0.000   0.000
(PID.TID 0000.0001)  16   1.372  34.750  36.991  -0.127   0.785  -0.006  -0.003  -0.001   0.000   0.000   0.000   0.000
(PID.TID 0000.0001)  17   1.332  34.800  39.171  -0.140   0.782  -0.006  -0.003  -0.002   0.000   0.000   0.000   0.000
(PID.TID 0000.0001)  18   0.797  34.800  41.472  -0.147   0.779  -0.006  -0.003  -0.001   0.000   0.000   0.000  -0.000
(PID.TID 0000.0001)  19   0.749  34.800  43.682  -0.160   0.775  -0.005  -0.002  -0.002   0.000   0.000   0.000  -0.000
(PID.TID 0000.0001)  20   0.214  34.750  45.912  -0.168   0.772  -0.005  -0.002  -0.002   0.000   0.000   0.000   0.000
(PID.TID 0000.0001)  21   0.160  34.750  48.080  -0.181   0.768  -0.005  -0.002  -0.003   0.000   0.000  -0.000  -0.000
(PID.TID 0000.0001)  22   0.584  34.750  50.131  -0.197   0.763  -0.005  -0.002  -0.001   0.000   0.000   0.000   0.000
(PID.TID 0000.0001)  23   0.522  34.750  52.248  -0.209   0.760  -0.005  -0.002  -0.002   0.000   0.000   0.000  -0.000
(PID.TID 0000.0001)     ;
(PID.TID 0000.0001) selectP_inEOS_Zc = /* select pressure to use in EOS (0,1,2,3) */
(PID.TID 0000.0001)                       0
(PID.TID 0000.0001)     0= -g*rhoConst*z ; 1= pRef (from tRef,sRef); 2= Hyd P ; 3= Hyd+NH P
(PID.TID 0000.0001)     ;
(PID.TID 0000.0001) HeatCapacity_Cp =  /* Specific heat capacity ( J/kg/K ) */
(PID.TID 0000.0001)                 3.994000000000000E+03
(PID.TID 0000.0001)     ;
(PID.TID 0000.0001) celsius2K = /* 0 degree Celsius converted to Kelvin ( K ) */
(PID.TID 0000.0001)                 2.731500000000000E+02
(PID.TID 0000.0001)     ;
(PID.TID 0000.0001) rhoConst  = /* Reference density (Boussinesq)  ( kg/m^3 ) */
(PID.TID 0000.0001)                 9.998000000000000E+02
(PID.TID 0000.0001)     ;
(PID.TID 0000.0001) rhoFacC = /* normalized Reference density @ cell-Center (-) */
(PID.TID 0000.0001)    23 @  1.000000000000000E+00              /* K =  1: 23 */
(PID.TID 0000.0001)     ;
(PID.TID 0000.0001) rhoFacF = /* normalized Reference density @ W-Interface (-) */
(PID.TID 0000.0001)    24 @  1.000000000000000E+00              /* K =  1: 24 */
(PID.TID 0000.0001)     ;
(PID.TID 0000.0001) rhoConstFresh = /* Fresh-water reference density ( kg/m^3 ) */
(PID.TID 0000.0001)                 9.998000000000000E+02
(PID.TID 0000.0001)     ;
(PID.TID 0000.0001) gravity =   /* Gravitational acceleration ( m/s^2 ) */
(PID.TID 0000.0001)                 9.810000000000000E+00
(PID.TID 0000.0001)     ;
(PID.TID 0000.0001) gBaro =   /* Barotropic gravity ( m/s^2 ) */
(PID.TID 0000.0001)                 9.810000000000000E+00
(PID.TID 0000.0001)     ;
(PID.TID 0000.0001) gravFacC = /* gravity factor (vs surf.) @ cell-Center (-) */
(PID.TID 0000.0001)    23 @  1.000000000000000E+00              /* K =  1: 23 */
(PID.TID 0000.0001)     ;
(PID.TID 0000.0001) gravFacF = /* gravity factor (vs surf.) @ W-Interface (-) */
(PID.TID 0000.0001)    24 @  1.000000000000000E+00              /* K =  1: 24 */
(PID.TID 0000.0001)     ;
(PID.TID 0000.0001) rotationPeriod =   /* Rotation Period ( s ) */
(PID.TID 0000.0001)                 8.616400000000000E+04
(PID.TID 0000.0001)     ;
(PID.TID 0000.0001) omega =   /* Angular velocity ( rad/s ) */
(PID.TID 0000.0001)                 7.292123516990375E-05
(PID.TID 0000.0001)     ;
(PID.TID 0000.0001) f0 =   /* Reference coriolis parameter ( 1/s ) */
(PID.TID 0000.0001)                 1.000000000000000E-04
(PID.TID 0000.0001)     ;
(PID.TID 0000.0001) beta =   /* Beta ( 1/(m.s) ) */
(PID.TID 0000.0001)                 9.999999999999999E-12
(PID.TID 0000.0001)     ;
(PID.TID 0000.0001) fPrime =   /* Second coriolis parameter ( 1/s ) */
(PID.TID 0000.0001)                 0.000000000000000E+00
(PID.TID 0000.0001)     ;
(PID.TID 0000.0001) rigidLid =   /* Rigid lid on/off flag */
(PID.TID 0000.0001)                   F
(PID.TID 0000.0001)     ;
(PID.TID 0000.0001) implicitFreeSurface =   /* Implicit free surface on/off flag */
(PID.TID 0000.0001)                   T
(PID.TID 0000.0001)     ;
(PID.TID 0000.0001) freeSurfFac =   /* Implicit free surface factor */
(PID.TID 0000.0001)                 1.000000000000000E+00
(PID.TID 0000.0001)     ;
(PID.TID 0000.0001) implicSurfPress =  /* Surface Pressure implicit factor (0-1)*/
(PID.TID 0000.0001)                 1.000000000000000E+00
(PID.TID 0000.0001)     ;
(PID.TID 0000.0001) implicDiv2DFlow =  /* Barot. Flow Div. implicit factor (0-1)*/
(PID.TID 0000.0001)                 1.000000000000000E+00
(PID.TID 0000.0001)     ;
(PID.TID 0000.0001) uniformLin_PhiSurf = /* use uniform Bo_surf on/off flag*/
(PID.TID 0000.0001)                   T
(PID.TID 0000.0001)     ;
(PID.TID 0000.0001) uniformFreeSurfLev = /* free-surface level-index is uniform */
(PID.TID 0000.0001)                   T
(PID.TID 0000.0001)     ;
(PID.TID 0000.0001) hFacMin =   /* minimum partial cell factor (hFac) */
(PID.TID 0000.0001)                 1.000000000000000E+00
(PID.TID 0000.0001)     ;
(PID.TID 0000.0001) hFacMinDr = /* minimum partial cell thickness ( m) */
(PID.TID 0000.0001)                 0.000000000000000E+00
(PID.TID 0000.0001)     ;
(PID.TID 0000.0001) exactConserv =  /* Exact Volume Conservation on/off flag*/
(PID.TID 0000.0001)                   F
(PID.TID 0000.0001)     ;
(PID.TID 0000.0001) linFSConserveTr = /* Tracer correction for Lin Free Surface on/off flag*/
(PID.TID 0000.0001)                   F
(PID.TID 0000.0001)     ;
(PID.TID 0000.0001) nonlinFreeSurf = /* Non-linear Free Surf. options (-1,0,1,2,3)*/
(PID.TID 0000.0001)                       0
(PID.TID 0000.0001)      -1,0= Off ; 1,2,3= On, 2=+rescale gU,gV, 3=+update cg2d solv.
(PID.TID 0000.0001)     ;
(PID.TID 0000.0001) hFacInf =   /* lower threshold for hFac (nonlinFreeSurf only)*/
(PID.TID 0000.0001)                 2.000000000000000E-01
(PID.TID 0000.0001)     ;
(PID.TID 0000.0001) hFacSup =   /* upper threshold for hFac (nonlinFreeSurf only)*/
(PID.TID 0000.0001)                 2.000000000000000E+00
(PID.TID 0000.0001)     ;
(PID.TID 0000.0001) select_rStar = /* r* Vertical coord. options (=0 r coord.; >0 uses r*)*/
(PID.TID 0000.0001)                       0
(PID.TID 0000.0001)     ;
(PID.TID 0000.0001) useRealFreshWaterFlux = /* Real Fresh Water Flux on/off flag*/
(PID.TID 0000.0001)                   F
(PID.TID 0000.0001)     ;
(PID.TID 0000.0001) temp_EvPrRn = /* Temp. of Evap/Prec/R (UNSET=use local T)(oC)*/
(PID.TID 0000.0001)                 1.234567000000000E+05
(PID.TID 0000.0001)     ;
(PID.TID 0000.0001) salt_EvPrRn = /* Salin. of Evap/Prec/R (UNSET=use local S)(psu)*/
(PID.TID 0000.0001)                 0.000000000000000E+00
(PID.TID 0000.0001)     ;
(PID.TID 0000.0001) selectAddFluid = /* option for mass source/sink of fluid (=0: off) */
(PID.TID 0000.0001)                       0
(PID.TID 0000.0001)     ;
(PID.TID 0000.0001) temp_addMass = /* Temp. of addMass array (UNSET=use local T)(oC)*/
(PID.TID 0000.0001)                 1.234567000000000E+05
(PID.TID 0000.0001)     ;
(PID.TID 0000.0001) salt_addMass = /* Salin. of addMass array (UNSET=use local S)(psu)*/
(PID.TID 0000.0001)                 0.000000000000000E+00
(PID.TID 0000.0001)     ;
(PID.TID 0000.0001) convertFW2Salt = /* convert F.W. Flux to Salt Flux (-1=use local S)(psu)*/
(PID.TID 0000.0001)                 3.500000000000000E+01
(PID.TID 0000.0001)     ;
(PID.TID 0000.0001) use3Dsolver = /* use 3-D pressure solver on/off flag */
(PID.TID 0000.0001)                   F
(PID.TID 0000.0001)     ;
(PID.TID 0000.0001) nonHydrostatic =  /* Non-Hydrostatic on/off flag */
(PID.TID 0000.0001)                   F
(PID.TID 0000.0001)     ;
(PID.TID 0000.0001) nh_Am2 = /* Non-Hydrostatic terms scaling factor */
(PID.TID 0000.0001)                 1.000000000000000E+00
(PID.TID 0000.0001)     ;
(PID.TID 0000.0001) implicitNHPress = /* Non-Hyd Pressure implicit factor (0-1)*/
(PID.TID 0000.0001)                 1.000000000000000E+00
(PID.TID 0000.0001)     ;
(PID.TID 0000.0001) selectNHfreeSurf = /* Non-Hyd (free-)Surface option */
(PID.TID 0000.0001)                       0
(PID.TID 0000.0001)     ;
(PID.TID 0000.0001) quasiHydrostatic = /* Quasi-Hydrostatic on/off flag */
(PID.TID 0000.0001)                   F
(PID.TID 0000.0001)     ;
(PID.TID 0000.0001) calc_wVelocity = /* vertical velocity calculation on/off flag */
(PID.TID 0000.0001)                   F
(PID.TID 0000.0001)     ;
(PID.TID 0000.0001) momStepping =  /* Momentum equation on/off flag */
(PID.TID 0000.0001)                   F
(PID.TID 0000.0001)     ;
(PID.TID 0000.0001) vectorInvariantMomentum= /* Vector-Invariant Momentum on/off */
(PID.TID 0000.0001)                   F
(PID.TID 0000.0001)     ;
(PID.TID 0000.0001) momAdvection =  /* Momentum advection on/off flag */
(PID.TID 0000.0001)                   F
(PID.TID 0000.0001)     ;
(PID.TID 0000.0001) momViscosity =  /* Momentum viscosity on/off flag */
(PID.TID 0000.0001)                   F
(PID.TID 0000.0001)     ;
(PID.TID 0000.0001) momImplVertAdv= /* Momentum implicit vert. advection on/off*/
(PID.TID 0000.0001)                   F
(PID.TID 0000.0001)     ;
(PID.TID 0000.0001) implicitViscosity = /* Implicit viscosity on/off flag */
(PID.TID 0000.0001)                   F
(PID.TID 0000.0001)     ;
(PID.TID 0000.0001) selectImplicitDrag= /* Implicit bot Drag options (0,1,2)*/
(PID.TID 0000.0001)                       0
(PID.TID 0000.0001)     0= Expl. ; 1= Impl. on provis. Vel ; 2= Fully Impl (with surf.P)
(PID.TID 0000.0001)     ;
(PID.TID 0000.0001) metricTerms =  /* metric-Terms on/off flag */
(PID.TID 0000.0001)                   T
(PID.TID 0000.0001)     ;
(PID.TID 0000.0001) useNHMTerms = /* Non-Hydrostatic Metric-Terms on/off */
(PID.TID 0000.0001)                   F
(PID.TID 0000.0001)     ;
(PID.TID 0000.0001) selectCoriMap = /* Coriolis Map options (0,1,2,3)*/
(PID.TID 0000.0001)                       2
(PID.TID 0000.0001)     0= f-Plane ; 1= Beta-Plane ; 2= Spherical ; 3= read from file
(PID.TID 0000.0001)     ;
(PID.TID 0000.0001) use3dCoriolis = /* 3-D Coriolis on/off flag */
(PID.TID 0000.0001)                   F
(PID.TID 0000.0001)     ;
(PID.TID 0000.0001) useCoriolis =  /* Coriolis on/off flag */
(PID.TID 0000.0001)                   F
(PID.TID 0000.0001)     ;
(PID.TID 0000.0001) useCDscheme =  /* CD scheme on/off flag */
(PID.TID 0000.0001)                   F
(PID.TID 0000.0001)     ;
(PID.TID 0000.0001) selectCoriScheme= /* Scheme selector for Coriolis-Term */
(PID.TID 0000.0001)                       0
(PID.TID 0000.0001)    = 0 : original discretization (simple averaging, no hFac)
(PID.TID 0000.0001)    = 1 : Wet-point averaging (Jamar & Ozer 1986)
(PID.TID 0000.0001)    = 2 : energy conserving scheme (no hFac weight)
(PID.TID 0000.0001)    = 3 : energy conserving scheme using Wet-point averaging
(PID.TID 0000.0001)     ;
(PID.TID 0000.0001) momForcing =  /* Momentum forcing on/off flag */
(PID.TID 0000.0001)                   F
(PID.TID 0000.0001)     ;
(PID.TID 0000.0001) momPressureForcing =  /* Momentum pressure term on/off flag */
(PID.TID 0000.0001)                   F
(PID.TID 0000.0001)     ;
(PID.TID 0000.0001) implicitIntGravWave= /* Implicit Internal Gravity Wave flag */
(PID.TID 0000.0001)                   F
(PID.TID 0000.0001)     ;
(PID.TID 0000.0001) staggerTimeStep =    /* Stagger time stepping on/off flag */
(PID.TID 0000.0001)                   F
(PID.TID 0000.0001)     ;
(PID.TID 0000.0001) doResetHFactors = /* reset thickness factors @ each time-step */
(PID.TID 0000.0001)                   F
(PID.TID 0000.0001)     ;
(PID.TID 0000.0001) multiDimAdvection =  /* enable/disable Multi-Dim Advection */
(PID.TID 0000.0001)                   T
(PID.TID 0000.0001)     ;
(PID.TID 0000.0001) useMultiDimAdvec =   /* Multi-Dim Advection is/is-not used */
(PID.TID 0000.0001)                   T
(PID.TID 0000.0001)     ;
(PID.TID 0000.0001) implicitDiffusion = /* Implicit Diffusion on/off flag */
(PID.TID 0000.0001)                   T
(PID.TID 0000.0001)     ;
(PID.TID 0000.0001) tempStepping =  /* Temperature equation on/off flag */
(PID.TID 0000.0001)                   F
(PID.TID 0000.0001)     ;
(PID.TID 0000.0001) tempAdvection = /* Temperature advection on/off flag */
(PID.TID 0000.0001)                   F
(PID.TID 0000.0001)     ;
(PID.TID 0000.0001) tempImplVertAdv = /* Temp. implicit vert. advection on/off */
(PID.TID 0000.0001)                   F
(PID.TID 0000.0001)     ;
(PID.TID 0000.0001) tempForcing  =  /* Temperature forcing on/off flag */
(PID.TID 0000.0001)                   F
(PID.TID 0000.0001)     ;
(PID.TID 0000.0001) doThetaClimRelax = /* apply SST relaxation on/off flag */
(PID.TID 0000.0001)                   F
(PID.TID 0000.0001)     ;
(PID.TID 0000.0001) tempIsActiveTr = /* Temp. is a dynamically Active Tracer */
(PID.TID 0000.0001)                   F
(PID.TID 0000.0001)     ;
(PID.TID 0000.0001) saltStepping =  /* Salinity equation on/off flag */
(PID.TID 0000.0001)                   F
(PID.TID 0000.0001)     ;
(PID.TID 0000.0001) saltAdvection = /* Salinity advection on/off flag */
(PID.TID 0000.0001)                   F
(PID.TID 0000.0001)     ;
(PID.TID 0000.0001) saltImplVertAdv = /* Sali. implicit vert. advection on/off */
(PID.TID 0000.0001)                   F
(PID.TID 0000.0001)     ;
(PID.TID 0000.0001) saltForcing  =  /* Salinity forcing on/off flag */
(PID.TID 0000.0001)                   F
(PID.TID 0000.0001)     ;
(PID.TID 0000.0001) doSaltClimRelax = /* apply SSS relaxation on/off flag */
(PID.TID 0000.0001)                   F
(PID.TID 0000.0001)     ;
(PID.TID 0000.0001) saltIsActiveTr = /* Salt  is a dynamically Active Tracer */
(PID.TID 0000.0001)                   F
(PID.TID 0000.0001)     ;
(PID.TID 0000.0001)  readBinaryPrec = /* Precision used for reading binary files */
(PID.TID 0000.0001)                      32
(PID.TID 0000.0001)     ;
(PID.TID 0000.0001) writeBinaryPrec = /* Precision used for writing binary files */
(PID.TID 0000.0001)                      32
(PID.TID 0000.0001)     ;
(PID.TID 0000.0001)  rwSuffixType =   /* select format of mds file suffix */
(PID.TID 0000.0001)                       0
(PID.TID 0000.0001)    = 0 : myIter (I10.10) ;   = 1 : 100*myTime (100th sec) ;
(PID.TID 0000.0001)    = 2 : myTime (seconds);   = 3 : myTime/360 (10th of hr);
(PID.TID 0000.0001)    = 4 : myTime/3600 (hours)
(PID.TID 0000.0001)     ;
(PID.TID 0000.0001)  globalFiles = /* write "global" (=not per tile) files */
(PID.TID 0000.0001)                   F
(PID.TID 0000.0001)     ;
(PID.TID 0000.0001)  useSingleCpuIO = /* only master MPI process does I/O */
(PID.TID 0000.0001)                   T
(PID.TID 0000.0001)     ;
(PID.TID 0000.0001)  useSingleCpuInput = /* only master process reads input */
(PID.TID 0000.0001)                   T
(PID.TID 0000.0001)     ;
(PID.TID 0000.0001) /* debLev[*]  : level of debug & auxiliary message printing */
(PID.TID 0000.0001) debLevZero =  0 ; /* level of disabled aux. msg printing */
(PID.TID 0000.0001)    debLevA =  1 ; /* level of minimum  aux. msg printing */
(PID.TID 0000.0001)    debLevB =  2 ; /* level of low aux. print (report read-file opening)*/
(PID.TID 0000.0001)    debLevC =  3 ; /* level of moderate debug prt (most pkgs debug msg) */
(PID.TID 0000.0001)    debLevD =  4 ; /* level of enhanced debug prt (add DEBUG_STATS prt) */
(PID.TID 0000.0001)    debLevE =  5 ; /* level of extensive debug printing */
(PID.TID 0000.0001) debugLevel =  /* select debug printing level */
(PID.TID 0000.0001)                       2
(PID.TID 0000.0001)     ;
(PID.TID 0000.0001)  plotLevel =  /* select PLOT_FIELD printing level */
(PID.TID 0000.0001)                       2
(PID.TID 0000.0001)     ;
(PID.TID 0000.0001) //
(PID.TID 0000.0001) // Elliptic solver(s) paramters ( PARM02 in namelist )
(PID.TID 0000.0001) //
(PID.TID 0000.0001) cg2dMaxIters =   /* Upper limit on 2d con. grad iterations  */
(PID.TID 0000.0001)                     300
(PID.TID 0000.0001)     ;
(PID.TID 0000.0001) cg2dChkResFreq =   /* 2d con. grad convergence test frequency */
(PID.TID 0000.0001)                       1
(PID.TID 0000.0001)     ;
(PID.TID 0000.0001) cg2dUseMinResSol= /* use cg2d last-iter(=0) / min-resid.(=1) solution */
(PID.TID 0000.0001)                       0
(PID.TID 0000.0001)     ;
(PID.TID 0000.0001) cg2dTargetResidual =   /* 2d con. grad target residual  */
(PID.TID 0000.0001)                 1.000000000000000E-07
(PID.TID 0000.0001)     ;
(PID.TID 0000.0001) cg2dTargetResWunit =   /* CG2d target residual [W units] */
(PID.TID 0000.0001)                -1.000000000000000E+00
(PID.TID 0000.0001)     ;
(PID.TID 0000.0001) cg2dPreCondFreq =   /* Freq. for updating cg2d preconditioner */
(PID.TID 0000.0001)                       1
(PID.TID 0000.0001)     ;
(PID.TID 0000.0001) useSRCGSolver =  /* use single reduction CG solver(s) */
(PID.TID 0000.0001)                   F
(PID.TID 0000.0001)     ;
(PID.TID 0000.0001) printResidualFreq = /* Freq. for printing CG residual */
(PID.TID 0000.0001)                       0
(PID.TID 0000.0001)     ;
(PID.TID 0000.0001) //
(PID.TID 0000.0001) // Time stepping paramters ( PARM03 in namelist )
(PID.TID 0000.0001) //
(PID.TID 0000.0001) deltaTMom =   /* Momentum equation timestep ( s ) */
(PID.TID 0000.0001)                 3.600000000000000E+03
(PID.TID 0000.0001)     ;
(PID.TID 0000.0001) deltaTFreeSurf = /* FreeSurface equation timestep ( s ) */
(PID.TID 0000.0001)                 3.600000000000000E+03
(PID.TID 0000.0001)     ;
(PID.TID 0000.0001) dTtracerLev =  /* Tracer equation timestep ( s ) */
(PID.TID 0000.0001)    23 @  3.600000000000000E+03              /* K =  1: 23 */
(PID.TID 0000.0001)     ;
(PID.TID 0000.0001) deltaTClock  =   /* Model clock timestep ( s ) */
(PID.TID 0000.0001)                 3.600000000000000E+03
(PID.TID 0000.0001)     ;
(PID.TID 0000.0001) cAdjFreq =   /* Convective adjustment interval ( s ) */
(PID.TID 0000.0001)                 0.000000000000000E+00
(PID.TID 0000.0001)     ;
(PID.TID 0000.0001) momForcingOutAB = /* =1: take Momentum Forcing out of Adams-Bash. stepping */
(PID.TID 0000.0001)                       0
(PID.TID 0000.0001)     ;
(PID.TID 0000.0001) tracForcingOutAB = /* =1: take T,S,pTr Forcing out of Adams-Bash. stepping */
(PID.TID 0000.0001)                       0
(PID.TID 0000.0001)     ;
(PID.TID 0000.0001) momDissip_In_AB = /* put Dissipation Tendency in Adams-Bash. stepping */
(PID.TID 0000.0001)                   T
(PID.TID 0000.0001)     ;
(PID.TID 0000.0001) doAB_onGtGs = /* apply AB on Tendencies (rather than on T,S)*/
(PID.TID 0000.0001)                   T
(PID.TID 0000.0001)     ;
(PID.TID 0000.0001) abEps =   /* Adams-Bashforth-2 stabilizing weight */
(PID.TID 0000.0001)                 1.000000000000000E-01
(PID.TID 0000.0001)     ;
(PID.TID 0000.0001) applyExchUV_early = /* Apply EXCH to U,V earlier in time-step */
(PID.TID 0000.0001)                   F
(PID.TID 0000.0001)     ;
(PID.TID 0000.0001) pickupSuff = /* Suffix of pickup-file to restart from */
(PID.TID 0000.0001)               '0000025920'
(PID.TID 0000.0001)     ;
(PID.TID 0000.0001) pickupStrictlyMatch= /* stop if pickup do not strictly match */
(PID.TID 0000.0001)                   T
(PID.TID 0000.0001)     ;
(PID.TID 0000.0001) nIter0   =   /* Run starting timestep number */
(PID.TID 0000.0001)                       0
(PID.TID 0000.0001)     ;
(PID.TID 0000.0001) nTimeSteps = /* Number of timesteps */
(PID.TID 0000.0001)                       4
(PID.TID 0000.0001)     ;
(PID.TID 0000.0001) nEndIter =   /* Run ending timestep number */
(PID.TID 0000.0001)                       4
(PID.TID 0000.0001)     ;
(PID.TID 0000.0001) baseTime =   /* Model base time ( s ) */
(PID.TID 0000.0001)                 0.000000000000000E+00
(PID.TID 0000.0001)     ;
(PID.TID 0000.0001) startTime =  /* Run start time ( s ) */
(PID.TID 0000.0001)                 0.000000000000000E+00
(PID.TID 0000.0001)     ;
(PID.TID 0000.0001) endTime  =   /* Integration ending time ( s ) */
(PID.TID 0000.0001)                 1.440000000000000E+04
(PID.TID 0000.0001)     ;
(PID.TID 0000.0001) pChkPtFreq = /* Permanent restart/pickup file interval ( s ) */
(PID.TID 0000.0001)                 3.110400000000000E+07
(PID.TID 0000.0001)     ;
(PID.TID 0000.0001) chkPtFreq  = /* Rolling restart/pickup file interval ( s ) */
(PID.TID 0000.0001)                 3.110400000000000E+07
(PID.TID 0000.0001)     ;
(PID.TID 0000.0001) pickup_write_mdsio =   /* Model IO flag. */
(PID.TID 0000.0001)                   T
(PID.TID 0000.0001)     ;
(PID.TID 0000.0001) pickup_read_mdsio =   /* Model IO flag. */
(PID.TID 0000.0001)                   T
(PID.TID 0000.0001)     ;
(PID.TID 0000.0001) pickup_write_mnc =   /* Model IO flag. */
(PID.TID 0000.0001)                   F
(PID.TID 0000.0001)     ;
(PID.TID 0000.0001) pickup_read_mnc =   /* Model IO flag. */
(PID.TID 0000.0001)                   F
(PID.TID 0000.0001)     ;
(PID.TID 0000.0001) writePickupAtEnd =   /* Model IO flag. */
(PID.TID 0000.0001)                   T
(PID.TID 0000.0001)     ;
(PID.TID 0000.0001) dumpFreq =   /* Model state write out interval ( s ). */
(PID.TID 0000.0001)                 0.000000000000000E+00
(PID.TID 0000.0001)     ;
(PID.TID 0000.0001) dumpInitAndLast= /* write out Initial & Last iter. model state */
(PID.TID 0000.0001)                   F
(PID.TID 0000.0001)     ;
(PID.TID 0000.0001) snapshot_mdsio =   /* Model IO flag. */
(PID.TID 0000.0001)                   F
(PID.TID 0000.0001)     ;
(PID.TID 0000.0001) snapshot_mnc =   /* Model IO flag. */
(PID.TID 0000.0001)                   T
(PID.TID 0000.0001)     ;
(PID.TID 0000.0001) monitorFreq =   /* Monitor output interval ( s ). */
(PID.TID 0000.0001)                 1.000000000000000E+00
(PID.TID 0000.0001)     ;
(PID.TID 0000.0001) monitorSelect = /* select group of variables to monitor */
(PID.TID 0000.0001)                       3
(PID.TID 0000.0001)     ;
(PID.TID 0000.0001) monitor_stdio =   /* Model IO flag. */
(PID.TID 0000.0001)                   T
(PID.TID 0000.0001)     ;
(PID.TID 0000.0001) monitor_mnc =   /* Model IO flag. */
(PID.TID 0000.0001)                   F
(PID.TID 0000.0001)     ;
(PID.TID 0000.0001) externForcingPeriod =   /* forcing period (s) */
(PID.TID 0000.0001)                 2.592000000000000E+06
(PID.TID 0000.0001)     ;
(PID.TID 0000.0001) externForcingCycle =   /* period of the cyle (s). */
(PID.TID 0000.0001)                 3.110400000000000E+07
(PID.TID 0000.0001)     ;
(PID.TID 0000.0001) tauThetaClimRelax =   /* relaxation time scale (s) */
(PID.TID 0000.0001)                 0.000000000000000E+00
(PID.TID 0000.0001)     ;
(PID.TID 0000.0001) tauSaltClimRelax =   /* relaxation time scale (s) */
(PID.TID 0000.0001)                 0.000000000000000E+00
(PID.TID 0000.0001)     ;
(PID.TID 0000.0001) latBandClimRelax =   /* max. Lat. where relaxation */
(PID.TID 0000.0001)                 1.800000000000000E+02
(PID.TID 0000.0001)     ;
(PID.TID 0000.0001) //
(PID.TID 0000.0001) // Gridding paramters ( PARM04 in namelist )
(PID.TID 0000.0001) //
(PID.TID 0000.0001) usingCartesianGrid = /* Cartesian coordinates flag ( True/False ) */
(PID.TID 0000.0001)                   F
(PID.TID 0000.0001)     ;
(PID.TID 0000.0001) usingCylindricalGrid = /* Cylindrical coordinates flag ( True/False ) */
(PID.TID 0000.0001)                   F
(PID.TID 0000.0001)     ;
(PID.TID 0000.0001) usingSphericalPolarGrid = /* Spherical coordinates flag ( True/False ) */
(PID.TID 0000.0001)                   T
(PID.TID 0000.0001)     ;
(PID.TID 0000.0001) usingCurvilinearGrid = /* Curvilinear coordinates flag ( True/False ) */
(PID.TID 0000.0001)                   F
(PID.TID 0000.0001)     ;
(PID.TID 0000.0001) useMin4hFacEdges = /* set hFacW,S as minimum of adjacent hFacC factor */
(PID.TID 0000.0001)                   F
(PID.TID 0000.0001)     ;
(PID.TID 0000.0001) interViscAr_pCell = /* account for partial-cell in interior vert. viscosity */
(PID.TID 0000.0001)                   F
(PID.TID 0000.0001)     ;
(PID.TID 0000.0001) interDiffKr_pCell = /* account for partial-cell in interior vert. diffusion */
(PID.TID 0000.0001)                   F
(PID.TID 0000.0001)     ;
(PID.TID 0000.0001) pCellMix_select = /* option to enhance mixing near surface & bottom */
(PID.TID 0000.0001)                       0
(PID.TID 0000.0001)     ;
(PID.TID 0000.0001) selectSigmaCoord = /* Hybrid-Sigma Vert. Coordinate option */
(PID.TID 0000.0001)                       0
(PID.TID 0000.0001)     ;
(PID.TID 0000.0001) rSigmaBnd = /* r/sigma transition ( units of r ==  m ) */
(PID.TID 0000.0001)                 1.234567000000000E+05
(PID.TID 0000.0001)     ;
(PID.TID 0000.0001) rkSign =   /* index orientation relative to vertical coordinate */
(PID.TID 0000.0001)                -1.000000000000000E+00
(PID.TID 0000.0001)     ;
(PID.TID 0000.0001) gravitySign = /* gravity orientation relative to vertical coordinate */
(PID.TID 0000.0001)                -1.000000000000000E+00
(PID.TID 0000.0001)     ;
(PID.TID 0000.0001) seaLev_Z =  /* reference height of sea-level [m] */
(PID.TID 0000.0001)                 0.000000000000000E+00
(PID.TID 0000.0001)     ;
(PID.TID 0000.0001) top_Pres =  /* reference pressure at the top [Pa] */
(PID.TID 0000.0001)                 0.000000000000000E+00
(PID.TID 0000.0001)     ;
(PID.TID 0000.0001) mass2rUnit = /* convert mass per unit area [kg/m2] to r-units [m] */
(PID.TID 0000.0001)                 1.000200040008002E-03
(PID.TID 0000.0001)     ;
(PID.TID 0000.0001) rUnit2mass = /* convert r-units [m] to mass per unit area [kg/m2] */
(PID.TID 0000.0001)                 9.998000000000000E+02
(PID.TID 0000.0001)     ;
(PID.TID 0000.0001) drC =   /* C spacing ( units of r ) */
(PID.TID 0000.0001)                 5.000000000000000E+00,      /* K =  1 */
(PID.TID 0000.0001)                 1.000000000000000E+01,      /* K =  2 */
(PID.TID 0000.0001)                 1.250000000000000E+01,      /* K =  3 */
(PID.TID 0000.0001)                 1.750000000000000E+01,      /* K =  4 */
(PID.TID 0000.0001)                 2.000000000000000E+01,      /* K =  5 */
(PID.TID 0000.0001)                 2.250000000000000E+01,      /* K =  6 */
(PID.TID 0000.0001)                 3.000000000000000E+01,      /* K =  7 */
(PID.TID 0000.0001)                 4.250000000000000E+01,      /* K =  8 */
(PID.TID 0000.0001)                 6.250000000000000E+01,      /* K =  9 */
(PID.TID 0000.0001)                 8.750000000000000E+01,      /* K = 10 */
(PID.TID 0000.0001)                 1.250000000000000E+02,      /* K = 11 */
(PID.TID 0000.0001)                 1.750000000000000E+02,      /* K = 12 */
(PID.TID 0000.0001)                 2.375000000000000E+02,      /* K = 13 */
(PID.TID 0000.0001)                 3.125000000000000E+02,      /* K = 14 */
(PID.TID 0000.0001)                 3.825000000000000E+02,      /* K = 15 */
(PID.TID 0000.0001)                 4.325000000000000E+02,      /* K = 16 */
(PID.TID 0000.0001)                 4.750000000000000E+02,      /* K = 17 */
(PID.TID 0000.0001)     6 @  5.000000000000000E+02,             /* K = 18: 23 */
(PID.TID 0000.0001)                 2.500000000000000E+02       /* K = 24 */
(PID.TID 0000.0001)     ;
(PID.TID 0000.0001) drF =   /* W spacing ( units of r ) */
(PID.TID 0000.0001)     2 @  1.000000000000000E+01,             /* K =  1:  2 */
(PID.TID 0000.0001)                 1.500000000000000E+01,      /* K =  3 */
(PID.TID 0000.0001)     2 @  2.000000000000000E+01,             /* K =  4:  5 */
(PID.TID 0000.0001)                 2.500000000000000E+01,      /* K =  6 */
(PID.TID 0000.0001)                 3.500000000000000E+01,      /* K =  7 */
(PID.TID 0000.0001)                 5.000000000000000E+01,      /* K =  8 */
(PID.TID 0000.0001)                 7.500000000000000E+01,      /* K =  9 */
(PID.TID 0000.0001)                 1.000000000000000E+02,      /* K = 10 */
(PID.TID 0000.0001)                 1.500000000000000E+02,      /* K = 11 */
(PID.TID 0000.0001)                 2.000000000000000E+02,      /* K = 12 */
(PID.TID 0000.0001)                 2.750000000000000E+02,      /* K = 13 */
(PID.TID 0000.0001)                 3.500000000000000E+02,      /* K = 14 */
(PID.TID 0000.0001)                 4.150000000000000E+02,      /* K = 15 */
(PID.TID 0000.0001)                 4.500000000000000E+02,      /* K = 16 */
(PID.TID 0000.0001)     7 @  5.000000000000000E+02              /* K = 17: 23 */
(PID.TID 0000.0001)     ;
(PID.TID 0000.0001) delX = /* U spacing ( m - cartesian, degrees - spherical ) */
(PID.TID 0000.0001)   360 @  1.000000000000000E+00              /* I =  1:360 */
(PID.TID 0000.0001)     ;
(PID.TID 0000.0001) delY = /* V spacing ( m - cartesian, degrees - spherical ) */
(PID.TID 0000.0001)   160 @  1.000000000000000E+00              /* J =  1:160 */
(PID.TID 0000.0001)     ;
(PID.TID 0000.0001) xgOrigin = /* X-axis origin of West  edge (cartesian: m, lat-lon: deg) */
(PID.TID 0000.0001)                 0.000000000000000E+00
(PID.TID 0000.0001)     ;
(PID.TID 0000.0001) ygOrigin = /* Y-axis origin of South edge (cartesian: m, lat-lon: deg) */
(PID.TID 0000.0001)                -8.000000000000000E+01
(PID.TID 0000.0001)     ;
(PID.TID 0000.0001) rSphere =  /* Radius ( ignored - cartesian, m - spherical ) */
(PID.TID 0000.0001)                 6.370000000000000E+06
(PID.TID 0000.0001)     ;
(PID.TID 0000.0001) deepAtmosphere = /* Deep/Shallow Atmosphere flag (True/False) */
(PID.TID 0000.0001)                   F
(PID.TID 0000.0001)     ;
(PID.TID 0000.0001) xC =  /* xC(:,1,:,1) : P-point X coord ( deg. or m if cartesian) */
(PID.TID 0000.0001)                 5.000000000000000E-01,      /* I =  1 */
(PID.TID 0000.0001)                 1.500000000000000E+00,      /* I =  2 */
(PID.TID 0000.0001)                 2.500000000000000E+00,      /* I =  3 */
(PID.TID 0000.0001)                 3.500000000000000E+00,      /* I =  4 */
(PID.TID 0000.0001)                 4.500000000000000E+00,      /* I =  5 */
(PID.TID 0000.0001)                 5.500000000000000E+00,      /* I =  6 */
(PID.TID 0000.0001)                 6.500000000000000E+00,      /* I =  7 */
(PID.TID 0000.0001)                 7.500000000000000E+00,      /* I =  8 */
(PID.TID 0000.0001)                 8.500000000000000E+00,      /* I =  9 */
(PID.TID 0000.0001)                 9.500000000000000E+00,      /* I = 10 */
(PID.TID 0000.0001)                 1.050000000000000E+01,      /* I = 11 */
(PID.TID 0000.0001)                 1.150000000000000E+01,      /* I = 12 */
(PID.TID 0000.0001)                 1.250000000000000E+01,      /* I = 13 */
(PID.TID 0000.0001)                 1.350000000000000E+01,      /* I = 14 */
(PID.TID 0000.0001)                 1.450000000000000E+01,      /* I = 15 */
(PID.TID 0000.0001)                 1.550000000000000E+01,      /* I = 16 */
(PID.TID 0000.0001)                 1.650000000000000E+01,      /* I = 17 */
(PID.TID 0000.0001)                 1.750000000000000E+01,      /* I = 18 */
(PID.TID 0000.0001)                 1.850000000000000E+01,      /* I = 19 */
(PID.TID 0000.0001)                 1.950000000000000E+01       /* I = 20 */
(PID.TID 0000.0001)     ;
(PID.TID 0000.0001) yC =  /* yC(1,:,1,:) : P-point Y coord ( deg. or m if cartesian) */
(PID.TID 0000.0001)                -7.950000000000000E+01,      /* J =  1 */
(PID.TID 0000.0001)                -7.850000000000000E+01,      /* J =  2 */
(PID.TID 0000.0001)                -7.750000000000000E+01,      /* J =  3 */
(PID.TID 0000.0001)                -7.650000000000000E+01,      /* J =  4 */
(PID.TID 0000.0001)                -7.550000000000000E+01,      /* J =  5 */
(PID.TID 0000.0001)                -7.450000000000000E+01,      /* J =  6 */
(PID.TID 0000.0001)                -7.350000000000000E+01,      /* J =  7 */
(PID.TID 0000.0001)                -7.250000000000000E+01,      /* J =  8 */
(PID.TID 0000.0001)                -7.150000000000000E+01,      /* J =  9 */
(PID.TID 0000.0001)                -7.050000000000000E+01,      /* J = 10 */
(PID.TID 0000.0001)                -6.950000000000000E+01,      /* J = 11 */
(PID.TID 0000.0001)                -6.850000000000000E+01,      /* J = 12 */
(PID.TID 0000.0001)                -6.750000000000000E+01,      /* J = 13 */
(PID.TID 0000.0001)                -6.650000000000000E+01,      /* J = 14 */
(PID.TID 0000.0001)                -6.550000000000000E+01,      /* J = 15 */
(PID.TID 0000.0001)                -6.450000000000000E+01,      /* J = 16 */
(PID.TID 0000.0001)                -6.350000000000000E+01,      /* J = 17 */
(PID.TID 0000.0001)                -6.250000000000000E+01,      /* J = 18 */
(PID.TID 0000.0001)                -6.150000000000000E+01,      /* J = 19 */
(PID.TID 0000.0001)                -6.050000000000000E+01       /* J = 20 */
(PID.TID 0000.0001)     ;
(PID.TID 0000.0001) rcoord = /* P-point R coordinate (  units of r ) */
(PID.TID 0000.0001)                -5.000000000000000E+00,      /* K =  1 */
(PID.TID 0000.0001)                -1.500000000000000E+01,      /* K =  2 */
(PID.TID 0000.0001)                -2.750000000000000E+01,      /* K =  3 */
(PID.TID 0000.0001)                -4.500000000000000E+01,      /* K =  4 */
(PID.TID 0000.0001)                -6.500000000000000E+01,      /* K =  5 */
(PID.TID 0000.0001)                -8.750000000000000E+01,      /* K =  6 */
(PID.TID 0000.0001)                -1.175000000000000E+02,      /* K =  7 */
(PID.TID 0000.0001)                -1.600000000000000E+02,      /* K =  8 */
(PID.TID 0000.0001)                -2.225000000000000E+02,      /* K =  9 */
(PID.TID 0000.0001)                -3.100000000000000E+02,      /* K = 10 */
(PID.TID 0000.0001)                -4.350000000000000E+02,      /* K = 11 */
(PID.TID 0000.0001)                -6.100000000000000E+02,      /* K = 12 */
(PID.TID 0000.0001)                -8.475000000000000E+02,      /* K = 13 */
(PID.TID 0000.0001)                -1.160000000000000E+03,      /* K = 14 */
(PID.TID 0000.0001)                -1.542500000000000E+03,      /* K = 15 */
(PID.TID 0000.0001)                -1.975000000000000E+03,      /* K = 16 */
(PID.TID 0000.0001)                -2.450000000000000E+03,      /* K = 17 */
(PID.TID 0000.0001)                -2.950000000000000E+03,      /* K = 18 */
(PID.TID 0000.0001)                -3.450000000000000E+03,      /* K = 19 */
(PID.TID 0000.0001)                -3.950000000000000E+03,      /* K = 20 */
(PID.TID 0000.0001)                -4.450000000000000E+03,      /* K = 21 */
(PID.TID 0000.0001)                -4.950000000000000E+03,      /* K = 22 */
(PID.TID 0000.0001)                -5.450000000000000E+03       /* K = 23 */
(PID.TID 0000.0001)     ;
(PID.TID 0000.0001) rF =   /* W-Interf. R coordinate (  units of r ) */
(PID.TID 0000.0001)                 0.000000000000000E+00,      /* K =  1 */
(PID.TID 0000.0001)                -1.000000000000000E+01,      /* K =  2 */
(PID.TID 0000.0001)                -2.000000000000000E+01,      /* K =  3 */
(PID.TID 0000.0001)                -3.500000000000000E+01,      /* K =  4 */
(PID.TID 0000.0001)                -5.500000000000000E+01,      /* K =  5 */
(PID.TID 0000.0001)                -7.500000000000000E+01,      /* K =  6 */
(PID.TID 0000.0001)                -1.000000000000000E+02,      /* K =  7 */
(PID.TID 0000.0001)                -1.350000000000000E+02,      /* K =  8 */
(PID.TID 0000.0001)                -1.850000000000000E+02,      /* K =  9 */
(PID.TID 0000.0001)                -2.600000000000000E+02,      /* K = 10 */
(PID.TID 0000.0001)                -3.600000000000000E+02,      /* K = 11 */
(PID.TID 0000.0001)                -5.100000000000000E+02,      /* K = 12 */
(PID.TID 0000.0001)                -7.100000000000000E+02,      /* K = 13 */
(PID.TID 0000.0001)                -9.850000000000000E+02,      /* K = 14 */
(PID.TID 0000.0001)                -1.335000000000000E+03,      /* K = 15 */
(PID.TID 0000.0001)                -1.750000000000000E+03,      /* K = 16 */
(PID.TID 0000.0001)                -2.200000000000000E+03,      /* K = 17 */
(PID.TID 0000.0001)                -2.700000000000000E+03,      /* K = 18 */
(PID.TID 0000.0001)                -3.200000000000000E+03,      /* K = 19 */
(PID.TID 0000.0001)                -3.700000000000000E+03,      /* K = 20 */
(PID.TID 0000.0001)                -4.200000000000000E+03,      /* K = 21 */
(PID.TID 0000.0001)                -4.700000000000000E+03,      /* K = 22 */
(PID.TID 0000.0001)                -5.200000000000000E+03,      /* K = 23 */
(PID.TID 0000.0001)                -5.700000000000000E+03       /* K = 24 */
(PID.TID 0000.0001)     ;
(PID.TID 0000.0001) deepFacC = /* deep-model grid factor @ cell-Center (-) */
(PID.TID 0000.0001)    23 @  1.000000000000000E+00              /* K =  1: 23 */
(PID.TID 0000.0001)     ;
(PID.TID 0000.0001) deepFacF = /* deep-model grid factor @ W-Interface (-) */
(PID.TID 0000.0001)    24 @  1.000000000000000E+00              /* K =  1: 24 */
(PID.TID 0000.0001)     ;
(PID.TID 0000.0001) rVel2wUnit = /* convert units: rVel -> wSpeed (=1 if z-coord)*/
(PID.TID 0000.0001)    24 @  1.000000000000000E+00              /* K =  1: 24 */
(PID.TID 0000.0001)     ;
(PID.TID 0000.0001) wUnit2rVel = /* convert units: wSpeed -> rVel (=1 if z-coord)*/
(PID.TID 0000.0001)    24 @  1.000000000000000E+00              /* K =  1: 24 */
(PID.TID 0000.0001)     ;
(PID.TID 0000.0001) dBdrRef = /* Vertical grad. of reference buoyancy [(m/s/r)^2] */
(PID.TID 0000.0001)    23 @  0.000000000000000E+00              /* K =  1: 23 */
(PID.TID 0000.0001)     ;
(PID.TID 0000.0001) rotateGrid = /* use rotated grid ( True/False ) */
(PID.TID 0000.0001)                   F
(PID.TID 0000.0001)     ;
(PID.TID 0000.0001) phiEuler = /* Euler angle, rotation about original z-coordinate [rad] */
(PID.TID 0000.0001)                 0.000000000000000E+00
(PID.TID 0000.0001)     ;
(PID.TID 0000.0001) thetaEuler = /* Euler angle, rotation about new x-coordinate [rad] */
(PID.TID 0000.0001)                 0.000000000000000E+00
(PID.TID 0000.0001)     ;
(PID.TID 0000.0001) psiEuler = /* Euler angle, rotation about new z-coordinate [rad] */
(PID.TID 0000.0001)                 0.000000000000000E+00
(PID.TID 0000.0001)     ;
(PID.TID 0000.0001) dxF =  /* dxF(:,1,:,1) ( units: m ) */
(PID.TID 0000.0001)    20 @  2.026048527919801E+04              /* I =  1: 20 */
(PID.TID 0000.0001)     ;
(PID.TID 0000.0001) dxF =  /* dxF(1,:,1,:) ( units: m ) */
(PID.TID 0000.0001)                 2.026048527919801E+04,      /* J =  1 */
(PID.TID 0000.0001)                 2.216522321591896E+04,      /* J =  2 */
(PID.TID 0000.0001)                 2.406320941092900E+04,      /* J =  3 */
(PID.TID 0000.0001)                 2.595386571924693E+04,      /* J =  4 */
(PID.TID 0000.0001)                 2.783661622864603E+04,      /* J =  5 */
(PID.TID 0000.0001)                 2.971088743508253E+04,      /* J =  6 */
(PID.TID 0000.0001)                 3.157610841739049E+04,      /* J =  7 */
(PID.TID 0000.0001)                 3.343171101118984E+04,      /* J =  8 */
(PID.TID 0000.0001)                 3.527712998195495E+04,      /* J =  9 */
(PID.TID 0000.0001)                 3.711180319719033E+04,      /* J = 10 */
(PID.TID 0000.0001)                 3.893517179766173E+04,      /* J = 11 */
(PID.TID 0000.0001)                 4.074668036763009E+04,      /* J = 12 */
(PID.TID 0000.0001)                 4.254577710403652E+04,      /* J = 13 */
(PID.TID 0000.0001)                 4.433191398458684E+04,      /* J = 14 */
(PID.TID 0000.0001)                 4.610454693468459E+04,      /* J = 15 */
(PID.TID 0000.0001)                 4.786313599316124E+04,      /* J = 16 */
(PID.TID 0000.0001)                 4.960714547675374E+04,      /* J = 17 */
(PID.TID 0000.0001)                 5.133604414327884E+04,      /* J = 18 */
(PID.TID 0000.0001)                 5.304930535345447E+04,      /* J = 19 */
(PID.TID 0000.0001)                 5.474640723131929E+04       /* J = 20 */
(PID.TID 0000.0001)     ;
(PID.TID 0000.0001) dyF =  /* dyF(:,1,:,1) ( units: m ) */
(PID.TID 0000.0001)    20 @  1.111774733520388E+05              /* I =  1: 20 */
(PID.TID 0000.0001)     ;
(PID.TID 0000.0001) dyF =  /* dyF(1,:,1,:) ( units: m ) */
(PID.TID 0000.0001)    20 @  1.111774733520388E+05              /* J =  1: 20 */
(PID.TID 0000.0001)     ;
(PID.TID 0000.0001) dxG =  /* dxG(:,1,:,1) ( units: m ) */
(PID.TID 0000.0001)    20 @  1.930576564519525E+04              /* I =  1: 20 */
(PID.TID 0000.0001)     ;
(PID.TID 0000.0001) dxG =  /* dxG(1,:,1,:) ( units: m ) */
(PID.TID 0000.0001)                 1.930576564519525E+04,      /* J =  1 */
(PID.TID 0000.0001)                 2.121366199880512E+04,      /* J =  2 */
(PID.TID 0000.0001)                 2.311509646546878E+04,      /* J =  3 */
(PID.TID 0000.0001)                 2.500948984982807E+04,      /* J =  4 */
(PID.TID 0000.0001)                 2.689626510130676E+04,      /* J =  5 */
(PID.TID 0000.0001)                 2.877484748988563E+04,      /* J =  6 */
(PID.TID 0000.0001)                 3.064466478117086E+04,      /* J =  7 */
(PID.TID 0000.0001)                 3.250514741070222E+04,      /* J =  8 */
(PID.TID 0000.0001)                 3.435572865744784E+04,      /* J =  9 */
(PID.TID 0000.0001)                 3.619584481643300E+04,      /* J = 10 */
(PID.TID 0000.0001)                 3.802493537045003E+04,      /* J = 11 */
(PID.TID 0000.0001)                 3.984244316079742E+04,      /* J = 12 */
(PID.TID 0000.0001)                 4.164781455699558E+04,      /* J = 13 */
(PID.TID 0000.0001)                 4.344049962542827E+04,      /* J = 14 */
(PID.TID 0000.0001)                 4.521995229685750E+04,      /* J = 15 */
(PID.TID 0000.0001)                 4.698563053276157E+04,      /* J = 16 */
(PID.TID 0000.0001)                 4.873699649044534E+04,      /* J = 17 */
(PID.TID 0000.0001)                 5.047351668687224E+04,      /* J = 18 */
(PID.TID 0000.0001)                 5.219466216116839E+04,      /* J = 19 */
(PID.TID 0000.0001)                 5.389990863574919E+04       /* J = 20 */
(PID.TID 0000.0001)     ;
(PID.TID 0000.0001) dyG =  /* dyG(:,1,:,1) ( units: m ) */
(PID.TID 0000.0001)    20 @  1.111774733520388E+05              /* I =  1: 20 */
(PID.TID 0000.0001)     ;
(PID.TID 0000.0001) dyG =  /* dyG(1,:,1,:) ( units: m ) */
(PID.TID 0000.0001)    20 @  1.111774733520388E+05              /* J =  1: 20 */
(PID.TID 0000.0001)     ;
(PID.TID 0000.0001) dxC =  /* dxC(:,1,:,1) ( units: m ) */
(PID.TID 0000.0001)    20 @  2.026048527919801E+04              /* I =  1: 20 */
(PID.TID 0000.0001)     ;
(PID.TID 0000.0001) dxC =  /* dxC(1,:,1,:) ( units: m ) */
(PID.TID 0000.0001)                 2.026048527919801E+04,      /* J =  1 */
(PID.TID 0000.0001)                 2.216522321591896E+04,      /* J =  2 */
(PID.TID 0000.0001)                 2.406320941092900E+04,      /* J =  3 */
(PID.TID 0000.0001)                 2.595386571924693E+04,      /* J =  4 */
(PID.TID 0000.0001)                 2.783661622864603E+04,      /* J =  5 */
(PID.TID 0000.0001)                 2.971088743508253E+04,      /* J =  6 */
(PID.TID 0000.0001)                 3.157610841739049E+04,      /* J =  7 */
(PID.TID 0000.0001)                 3.343171101118984E+04,      /* J =  8 */
(PID.TID 0000.0001)                 3.527712998195495E+04,      /* J =  9 */
(PID.TID 0000.0001)                 3.711180319719033E+04,      /* J = 10 */
(PID.TID 0000.0001)                 3.893517179766173E+04,      /* J = 11 */
(PID.TID 0000.0001)                 4.074668036763009E+04,      /* J = 12 */
(PID.TID 0000.0001)                 4.254577710403652E+04,      /* J = 13 */
(PID.TID 0000.0001)                 4.433191398458684E+04,      /* J = 14 */
(PID.TID 0000.0001)                 4.610454693468459E+04,      /* J = 15 */
(PID.TID 0000.0001)                 4.786313599316124E+04,      /* J = 16 */
(PID.TID 0000.0001)                 4.960714547675374E+04,      /* J = 17 */
(PID.TID 0000.0001)                 5.133604414327884E+04,      /* J = 18 */
(PID.TID 0000.0001)                 5.304930535345447E+04,      /* J = 19 */
(PID.TID 0000.0001)                 5.474640723131929E+04       /* J = 20 */
(PID.TID 0000.0001)     ;
(PID.TID 0000.0001) dyC =  /* dyC(:,1,:,1) ( units: m ) */
(PID.TID 0000.0001)    20 @  1.111774733520388E+05              /* I =  1: 20 */
(PID.TID 0000.0001)     ;
(PID.TID 0000.0001) dyC =  /* dyC(1,:,1,:) ( units: m ) */
(PID.TID 0000.0001)    20 @  1.111774733520388E+05              /* J =  1: 20 */
(PID.TID 0000.0001)     ;
(PID.TID 0000.0001) dxV =  /* dxV(:,1,:,1) ( units: m ) */
(PID.TID 0000.0001)    20 @  1.930576564519525E+04              /* I =  1: 20 */
(PID.TID 0000.0001)     ;
(PID.TID 0000.0001) dxV =  /* dxV(1,:,1,:) ( units: m ) */
(PID.TID 0000.0001)                 1.930576564519525E+04,      /* J =  1 */
(PID.TID 0000.0001)                 2.121366199880512E+04,      /* J =  2 */
(PID.TID 0000.0001)                 2.311509646546878E+04,      /* J =  3 */
(PID.TID 0000.0001)                 2.500948984982807E+04,      /* J =  4 */
(PID.TID 0000.0001)                 2.689626510130676E+04,      /* J =  5 */
(PID.TID 0000.0001)                 2.877484748988563E+04,      /* J =  6 */
(PID.TID 0000.0001)                 3.064466478117086E+04,      /* J =  7 */
(PID.TID 0000.0001)                 3.250514741070222E+04,      /* J =  8 */
(PID.TID 0000.0001)                 3.435572865744784E+04,      /* J =  9 */
(PID.TID 0000.0001)                 3.619584481643300E+04,      /* J = 10 */
(PID.TID 0000.0001)                 3.802493537045003E+04,      /* J = 11 */
(PID.TID 0000.0001)                 3.984244316079742E+04,      /* J = 12 */
(PID.TID 0000.0001)                 4.164781455699558E+04,      /* J = 13 */
(PID.TID 0000.0001)                 4.344049962542827E+04,      /* J = 14 */
(PID.TID 0000.0001)                 4.521995229685750E+04,      /* J = 15 */
(PID.TID 0000.0001)                 4.698563053276157E+04,      /* J = 16 */
(PID.TID 0000.0001)                 4.873699649044534E+04,      /* J = 17 */
(PID.TID 0000.0001)                 5.047351668687224E+04,      /* J = 18 */
(PID.TID 0000.0001)                 5.219466216116839E+04,      /* J = 19 */
(PID.TID 0000.0001)                 5.389990863574919E+04       /* J = 20 */
(PID.TID 0000.0001)     ;
(PID.TID 0000.0001) dyU =  /* dyU(:,1,:,1) ( units: m ) */
(PID.TID 0000.0001)    20 @  1.111774733520388E+05              /* I =  1: 20 */
(PID.TID 0000.0001)     ;
(PID.TID 0000.0001) dyU =  /* dyU(1,:,1,:) ( units: m ) */
(PID.TID 0000.0001)    20 @  1.111774733520388E+05              /* J =  1: 20 */
(PID.TID 0000.0001)     ;
(PID.TID 0000.0001) rA  =  /* rA (:,1,:,1) ( units: m^2 ) */
(PID.TID 0000.0001)    20 @  2.252480972600775E+09              /* I =  1: 20 */
(PID.TID 0000.0001)     ;
(PID.TID 0000.0001) rA  =  /* rA (1,:,1,:) ( units: m^2 ) */
(PID.TID 0000.0001)                 2.252480972600775E+09,      /* J =  1 */
(PID.TID 0000.0001)                 2.464242236022337E+09,      /* J =  2 */
(PID.TID 0000.0001)                 2.675252867386942E+09,      /* J =  3 */
(PID.TID 0000.0001)                 2.885448590812564E+09,      /* J =  4 */
(PID.TID 0000.0001)                 3.094765378645360E+09,      /* J =  5 */
(PID.TID 0000.0001)                 3.303139470964198E+09,      /* J =  6 */
(PID.TID 0000.0001)                 3.510507395001996E+09,      /* J =  7 */
(PID.TID 0000.0001)                 3.716805984480110E+09,      /* J =  8 */
(PID.TID 0000.0001)                 3.921972398849929E+09,      /* J =  9 */
(PID.TID 0000.0001)                 4.125944142434001E+09,      /* J = 10 */
(PID.TID 0000.0001)                 4.328659083463362E+09,      /* J = 11 */
(PID.TID 0000.0001)                 4.530055473003297E+09,      /* J = 12 */
(PID.TID 0000.0001)                 4.730071963762505E+09,      /* J = 13 */
(PID.TID 0000.0001)                 4.928647628780381E+09,      /* J = 14 */
(PID.TID 0000.0001)                 5.125721979985523E+09,      /* J = 15 */
(PID.TID 0000.0001)                 5.321234986621584E+09,      /* J = 16 */
(PID.TID 0000.0001)                 5.515127093532944E+09,      /* J = 17 */
(PID.TID 0000.0001)                 5.707339239305150E+09,      /* J = 18 */
(PID.TID 0000.0001)                 5.897812874256923E+09,      /* J = 19 */
(PID.TID 0000.0001)                 6.086489978273794E+09       /* J = 20 */
(PID.TID 0000.0001)     ;
(PID.TID 0000.0001) rAw =  /* rAw(:,1,:,1) ( units: m^2 ) */
(PID.TID 0000.0001)    20 @  2.252480972600775E+09              /* I =  1: 20 */
(PID.TID 0000.0001)     ;
(PID.TID 0000.0001) rAw =  /* rAw(1,:,1,:) ( units: m^2 ) */
(PID.TID 0000.0001)                 2.252480972600775E+09,      /* J =  1 */
(PID.TID 0000.0001)                 2.464242236022337E+09,      /* J =  2 */
(PID.TID 0000.0001)                 2.675252867386942E+09,      /* J =  3 */
(PID.TID 0000.0001)                 2.885448590812564E+09,      /* J =  4 */
(PID.TID 0000.0001)                 3.094765378645360E+09,      /* J =  5 */
(PID.TID 0000.0001)                 3.303139470964198E+09,      /* J =  6 */
(PID.TID 0000.0001)                 3.510507395001996E+09,      /* J =  7 */
(PID.TID 0000.0001)                 3.716805984480110E+09,      /* J =  8 */
(PID.TID 0000.0001)                 3.921972398849929E+09,      /* J =  9 */
(PID.TID 0000.0001)                 4.125944142434001E+09,      /* J = 10 */
(PID.TID 0000.0001)                 4.328659083463362E+09,      /* J = 11 */
(PID.TID 0000.0001)                 4.530055473003297E+09,      /* J = 12 */
(PID.TID 0000.0001)                 4.730071963762505E+09,      /* J = 13 */
(PID.TID 0000.0001)                 4.928647628780381E+09,      /* J = 14 */
(PID.TID 0000.0001)                 5.125721979985523E+09,      /* J = 15 */
(PID.TID 0000.0001)                 5.321234986621584E+09,      /* J = 16 */
(PID.TID 0000.0001)                 5.515127093532944E+09,      /* J = 17 */
(PID.TID 0000.0001)                 5.707339239305150E+09,      /* J = 18 */
(PID.TID 0000.0001)                 5.897812874256923E+09,      /* J = 19 */
(PID.TID 0000.0001)                 6.086489978273794E+09       /* J = 20 */
(PID.TID 0000.0001)     ;
(PID.TID 0000.0001) rAs =  /* rAs(:,1,:,1) ( units: m^2 ) */
(PID.TID 0000.0001)    20 @  2.146339003140312E+09              /* I =  1: 20 */
(PID.TID 0000.0001)     ;
(PID.TID 0000.0001) rAs =  /* rAs(1,:,1,:) ( units: m^2 ) */
(PID.TID 0000.0001)                 2.146339003140312E+09,      /* J =  1 */
(PID.TID 0000.0001)                 2.358451406914464E+09,      /* J =  2 */
(PID.TID 0000.0001)                 2.569845403543145E+09,      /* J =  3 */
(PID.TID 0000.0001)                 2.780456600367350E+09,      /* J =  4 */
(PID.TID 0000.0001)                 2.990220843176115E+09,      /* J =  5 */
(PID.TID 0000.0001)                 3.199074235749182E+09,      /* J =  6 */
(PID.TID 0000.0001)                 3.406953159319860E+09,      /* J =  7 */
(PID.TID 0000.0001)                 3.613794291954373E+09,      /* J =  8 */
(PID.TID 0000.0001)                 3.819534627839939E+09,      /* J =  9 */
(PID.TID 0000.0001)                 4.024111496477147E+09,      /* J = 10 */
(PID.TID 0000.0001)                 4.227462581770208E+09,      /* J = 11 */
(PID.TID 0000.0001)                 4.429525941008306E+09,      /* J = 12 */
(PID.TID 0000.0001)                 4.630240023735217E+09,      /* J = 13 */
(PID.TID 0000.0001)                 4.829543690496597E+09,      /* J = 14 */
(PID.TID 0000.0001)                 5.027376231465073E+09,      /* J = 15 */
(PID.TID 0000.0001)                 5.223677384932224E+09,      /* J = 16 */
(PID.TID 0000.0001)                 5.418387355664783E+09,      /* J = 17 */
(PID.TID 0000.0001)                 5.611446833120007E+09,      /* J = 18 */
(PID.TID 0000.0001)                 5.802797009510403E+09,      /* J = 19 */
(PID.TID 0000.0001)                 5.992379597718760E+09       /* J = 20 */
(PID.TID 0000.0001)     ;
(PID.TID 0000.0001) globalArea = /* Integrated horizontal Area (m^2) */
(PID.TID 0000.0001)                 3.463878365678419E+14
(PID.TID 0000.0001)     ;
(PID.TID 0000.0001) // =======================================================
(PID.TID 0000.0001) // End of Model config. summary
(PID.TID 0000.0001) // =======================================================
(PID.TID 0000.0001) 
(PID.TID 0000.0001) == Packages configuration : Check & print summary ==
(PID.TID 0000.0001) 
(PID.TID 0000.0001) KPP_CHECK: #define ALLOW_KPP
(PID.TID 0000.0001)  kpp_freq = /* frequency of KPP calculation */
(PID.TID 0000.0001)                 3.600000000000000E+03
(PID.TID 0000.0001)     ;
(PID.TID 0000.0001) KPP_ghatUseTotalDiffus= /* non-local term fct of total diffus */
(PID.TID 0000.0001)                   F
(PID.TID 0000.0001)     ;
(PID.TID 0000.0001) KPPuseDoubleDiff = /* include double diffusive contrib */
(PID.TID 0000.0001)                   F
(PID.TID 0000.0001)     ;
(PID.TID 0000.0001) LimitHblStable = /* limits depth of hbl if stable cond.*/
(PID.TID 0000.0001)                   T
(PID.TID 0000.0001)     ;
(PID.TID 0000.0001)  minKPPhbl = /* minimum KPPhbl value [m] */
(PID.TID 0000.0001)                 5.000000000000000E+00
(PID.TID 0000.0001)     ;
(PID.TID 0000.0001)  epsln     = /* constant [-] */
(PID.TID 0000.0001)                 9.999999999999999E-21
(PID.TID 0000.0001)     ;
(PID.TID 0000.0001)  phepsi    = /* constant [-] */
(PID.TID 0000.0001)                 1.000000000000000E-10
(PID.TID 0000.0001)     ;
(PID.TID 0000.0001)  epsilon   = /* constant [-] */
(PID.TID 0000.0001)                 1.000000000000000E-01
(PID.TID 0000.0001)     ;
(PID.TID 0000.0001)  vonk      = /* Von Karmans constant [-] */
(PID.TID 0000.0001)                 4.000000000000000E-01
(PID.TID 0000.0001)     ;
(PID.TID 0000.0001)  dB_dz     = /* maximum N^2 in mixed layer [s^-2] */
(PID.TID 0000.0001)                 5.200000000000000E-05
(PID.TID 0000.0001)     ;
(PID.TID 0000.0001)  conc1     = /* scalar constant [-] */
(PID.TID 0000.0001)                 5.000000000000000E+00
(PID.TID 0000.0001)     ;
(PID.TID 0000.0001)  conam     = /* scalar constant [-] */
(PID.TID 0000.0001)                 1.257000000000000E+00
(PID.TID 0000.0001)     ;
(PID.TID 0000.0001)  concm     = /* scalar constant [-] */
(PID.TID 0000.0001)                 8.380000000000001E+00
(PID.TID 0000.0001)     ;
(PID.TID 0000.0001)  conc2     = /* scalar constant [-] */
(PID.TID 0000.0001)                 1.600000000000000E+01
(PID.TID 0000.0001)     ;
(PID.TID 0000.0001)  conas     = /* scalar constant [-] */
(PID.TID 0000.0001)                -2.886000000000000E+01
(PID.TID 0000.0001)     ;
(PID.TID 0000.0001)  concs     = /* scalar constant [-] */
(PID.TID 0000.0001)                 9.895999999999999E+01
(PID.TID 0000.0001)     ;
(PID.TID 0000.0001)  conc3     = /* scalar constant [-] */
(PID.TID 0000.0001)                 1.600000000000000E+01
(PID.TID 0000.0001)     ;
(PID.TID 0000.0001)  zetam     = /* scalar constant [-] */
(PID.TID 0000.0001)                -2.000000000000000E-01
(PID.TID 0000.0001)     ;
(PID.TID 0000.0001)  zetas     = /* scalar constant [-] */
(PID.TID 0000.0001)                -1.000000000000000E+00
(PID.TID 0000.0001)     ;
(PID.TID 0000.0001)  Ricr      = /* critical bulk Richardson Number [-] */
(PID.TID 0000.0001)                 3.000000000000000E-01
(PID.TID 0000.0001)     ;
(PID.TID 0000.0001)  cekman    = /* coeff for Ekman depth [-] */
(PID.TID 0000.0001)                 7.000000000000000E-01
(PID.TID 0000.0001)     ;
(PID.TID 0000.0001)  cmonob    = /* coeff for Monin-Obukhov depth [-] */
(PID.TID 0000.0001)                 1.000000000000000E+00
(PID.TID 0000.0001)     ;
(PID.TID 0000.0001)  concv     = /* buoyancy freq ratio [-] */
(PID.TID 0000.0001)                 1.800000000000000E+00
(PID.TID 0000.0001)     ;
(PID.TID 0000.0001)  hbf       = /* solar radiation depth ratio [-] */
(PID.TID 0000.0001)                 1.000000000000000E+00
(PID.TID 0000.0001)     ;
(PID.TID 0000.0001)  zmin      = /* minimum for zehat in table [m3/s3] */
(PID.TID 0000.0001)                -4.000000000000000E-07
(PID.TID 0000.0001)     ;
(PID.TID 0000.0001)  zmax      = /* maximum for zehat in table [m3/s3] */
(PID.TID 0000.0001)                 0.000000000000000E+00
(PID.TID 0000.0001)     ;
(PID.TID 0000.0001)  umin      = /* minimum for ustar in table [m/s] */
(PID.TID 0000.0001)                 0.000000000000000E+00
(PID.TID 0000.0001)     ;
(PID.TID 0000.0001)  umax      = /* maximum for ustar in table [m/s] */
(PID.TID 0000.0001)                 4.000000000000000E-02
(PID.TID 0000.0001)     ;
(PID.TID 0000.0001) num_v_smooth_Ri = /* number of vertical smoothing */
(PID.TID 0000.0001)                       0
(PID.TID 0000.0001)     ;
(PID.TID 0000.0001)  Riinfty   = /* shear instability Ri number limit [-] */
(PID.TID 0000.0001)                 7.000000000000000E-01
(PID.TID 0000.0001)     ;
(PID.TID 0000.0001)  BVSQcon   = /* Brunt-Vaisala squared (=N^2) [s^-2] */
(PID.TID 0000.0001)                -2.000000000000000E-05
(PID.TID 0000.0001)     ;
(PID.TID 0000.0001)  difm0     = /* max viscosity from shear instab. [m2/s] */
(PID.TID 0000.0001)                 5.000000000000000E-03
(PID.TID 0000.0001)     ;
(PID.TID 0000.0001)  difs0     = /* max diffusiv. from shear instab. [m2/s] */
(PID.TID 0000.0001)                 5.000000000000000E-03
(PID.TID 0000.0001)     ;
(PID.TID 0000.0001)  dift0     = /* max diffusiv. from shear instab. [m2/s] */
(PID.TID 0000.0001)                 5.000000000000000E-03
(PID.TID 0000.0001)     ;
(PID.TID 0000.0001)  difmcon   = /* convective viscosity [m2/s] */
(PID.TID 0000.0001)                 1.000000000000000E-01
(PID.TID 0000.0001)     ;
(PID.TID 0000.0001)  difscon   = /* convective diffusiv. [m2/s] */
(PID.TID 0000.0001)                 1.000000000000000E-01
(PID.TID 0000.0001)     ;
(PID.TID 0000.0001)  diftcon   = /* convective diffusiv. [m2/s] */
(PID.TID 0000.0001)                 1.000000000000000E-01
(PID.TID 0000.0001)     ;
(PID.TID 0000.0001)  Rrho0     = /* double diffusion density ratio [-] */
(PID.TID 0000.0001)                 1.900000000000000E+00
(PID.TID 0000.0001)     ;
(PID.TID 0000.0001)  dsfmax    = /* max diffusiv. for salt fingering [m2/s] */
(PID.TID 0000.0001)                 1.000000000000000E-02
(PID.TID 0000.0001)     ;
(PID.TID 0000.0001)  cstar     = /* coeff for non-locak transport [-] */
(PID.TID 0000.0001)                 1.000000000000000E+01
(PID.TID 0000.0001)     ;
(PID.TID 0000.0001) KPPwriteState = /* write KPP fields to file */
(PID.TID 0000.0001)                   F
(PID.TID 0000.0001)     ;
(PID.TID 0000.0001)  kpp_dumpFreq = /* dump freq of KPP output */
(PID.TID 0000.0001)                 0.000000000000000E+00
(PID.TID 0000.0001)     ;
(PID.TID 0000.0001)  kpp_taveFreq = /* time-averaging freq of KPP output */
(PID.TID 0000.0001)                 0.000000000000000E+00
(PID.TID 0000.0001)     ;
(PID.TID 0000.0001) 
(PID.TID 0000.0001) GMREDI_CHECK: #define GMREDI
(PID.TID 0000.0001) GM_AdvForm =     /* if FALSE => use SkewFlux Form */
(PID.TID 0000.0001)                   F
(PID.TID 0000.0001)     ;
(PID.TID 0000.0001) GM_InMomAsStress = /* if TRUE => apply as Eddy Stress */
(PID.TID 0000.0001)                   F
(PID.TID 0000.0001)     ;
(PID.TID 0000.0001) GM_AdvSeparate = /* Calc Bolus & Euler Adv. separately */
(PID.TID 0000.0001)                   F
(PID.TID 0000.0001)     ;
(PID.TID 0000.0001) GM_ExtraDiag =   /* Tensor Extra Diag (line 1&2) non 0 */
(PID.TID 0000.0001)                   F
(PID.TID 0000.0001)     ;
(PID.TID 0000.0001) GM_isopycK =    /* Background Isopyc. Diffusivity [m^2/s] */
(PID.TID 0000.0001)                 1.000000000000000E+03
(PID.TID 0000.0001)     ;
(PID.TID 0000.0001) GM_skewflx*K =  /* Background GM_SkewFlx Diffusivity [m^2/s] */
(PID.TID 0000.0001)                 1.000000000000000E+03
(PID.TID 0000.0001)     ;
(PID.TID 0000.0001) GM_advec*K =    /* Backg. GM-Advec(=Bolus) Diffusivity [m^2/s]*/
(PID.TID 0000.0001)                 0.000000000000000E+00
(PID.TID 0000.0001)     ;
(PID.TID 0000.0001) GM_Kmin_horiz = /* Minimum Horizontal Diffusivity [m^2/s] */
(PID.TID 0000.0001)                 5.000000000000000E+01
(PID.TID 0000.0001)     ;
(PID.TID 0000.0001) GM_Visbeck_alpha = /* Visbeck alpha coeff. [-] */
(PID.TID 0000.0001)                 0.000000000000000E+00
(PID.TID 0000.0001)     ;
(PID.TID 0000.0001) GM_Small_Number =  /* epsilon used in slope calc */
(PID.TID 0000.0001)                 9.999999999999999E-21
(PID.TID 0000.0001)     ;
(PID.TID 0000.0001) GM_slopeSqCutoff = /* Slope^2 cut-off value */
(PID.TID 0000.0001)                 1.000000000000000E+08
(PID.TID 0000.0001)     ;
(PID.TID 0000.0001) GM_taper_scheme =  /* Type of Tapering/Clipping scheme */
(PID.TID 0000.0001)               'dm95                                    '
(PID.TID 0000.0001)     ;
(PID.TID 0000.0001) GM_maxSlope =  /* Maximum Slope (Tapering/Clipping) */
(PID.TID 0000.0001)                 1.000000000000000E-02
(PID.TID 0000.0001)     ;
(PID.TID 0000.0001) GM_facTrL2dz = /* Minimum Trans.Layer Thick. (factor of dz) */
(PID.TID 0000.0001)                 1.000000000000000E+00
(PID.TID 0000.0001)     ;
(PID.TID 0000.0001) GM_facTrL2ML = /* Max.Trans.Layer Thick. (factor of MxL Depth)*/
(PID.TID 0000.0001)                 5.000000000000000E+00
(PID.TID 0000.0001)     ;
(PID.TID 0000.0001) GM_maxTransLay = /* Maximum Transition Layer Thickness [m] */
(PID.TID 0000.0001)                 5.000000000000000E+02
(PID.TID 0000.0001)     ;
(PID.TID 0000.0001) GM_UseBVP = /* if TRUE => use bvp a la Ferrari et al. (2010) */
(PID.TID 0000.0001)                   F
(PID.TID 0000.0001)     ;
(PID.TID 0000.0001) GM_BVP_ModeNumber = /* Vertical mode number for BVP wave speed */
(PID.TID 0000.0001)                       1
(PID.TID 0000.0001)     ;
(PID.TID 0000.0001) GM_BVP_cMin = /* Minimum wave speed for BVP [m/s] */
(PID.TID 0000.0001)                 1.000000000000000E-01
(PID.TID 0000.0001)     ;
(PID.TID 0000.0001) GM_useSubMeso = /* if TRUE => use Sub-Meso param. (B.Fox-Kemper) */
(PID.TID 0000.0001)                   F
(PID.TID 0000.0001)     ;
(PID.TID 0000.0001) subMeso_Ceff = /* efficiency coeff. of Mixed-Layer Eddies [-] */
(PID.TID 0000.0001)                 7.000000000000001E-02
(PID.TID 0000.0001)     ;
(PID.TID 0000.0001) subMeso_invTau = /* inverse of Sub-Meso mixing time-scale [/s] */
(PID.TID 0000.0001)                 2.000000000000000E-06
(PID.TID 0000.0001)     ;
(PID.TID 0000.0001) subMeso_LfMin = /* minimum length-scale "Lf" [m] */
(PID.TID 0000.0001)                 1.000000000000000E+03
(PID.TID 0000.0001)     ;
(PID.TID 0000.0001) subMeso_Lmax = /* maximum grid-scale length [m] */
(PID.TID 0000.0001)                 1.100000000000000E+05
(PID.TID 0000.0001)     ;
(PID.TID 0000.0001) GM_useLeithQG = /* if TRUE => add QG Leith viscosity to GMRedi tensor */
(PID.TID 0000.0001)                   F
(PID.TID 0000.0001)     ;
(PID.TID 0000.0001) EXF_CHECK: #define ALLOW_EXF
(PID.TID 0000.0001) PTRACERS_CHECK: #define ALLOW_PTRACERS
(PID.TID 0000.0001) // ===================================
(PID.TID 0000.0001) // PTRACERS parameters
(PID.TID 0000.0001) // ===================================
(PID.TID 0000.0001) PTRACERS_numInUse = /* number of tracers */
(PID.TID 0000.0001)                      36
(PID.TID 0000.0001)     ;
(PID.TID 0000.0001) PTRACERS_Iter0 = /* timestep number when tracers are initialized */
(PID.TID 0000.0001)                       0
(PID.TID 0000.0001)     ;
(PID.TID 0000.0001) PTRACERS_startAllTrc =/* all tracers start @ startTime */
(PID.TID 0000.0001)                   T
(PID.TID 0000.0001)     ;
(PID.TID 0000.0001) PTRACERS_doAB_onGpTr =/* apply AB on Tendencies (rather than on Tracers) */
(PID.TID 0000.0001)                   T
(PID.TID 0000.0001)     ;
(PID.TID 0000.0001) PTRACERS_addSrelax2EmP =/* add Salt relaxation to EmP */
(PID.TID 0000.0001)                   F
(PID.TID 0000.0001)     ;
(PID.TID 0000.0001) PTRACERS_dTLev =   /* Ptracer timestep ( s ) */
(PID.TID 0000.0001)    23 @  3.600000000000000E+03              /* K =  1: 23 */
(PID.TID 0000.0001)     ;
(PID.TID 0000.0001) PTRACERS_monitorFreq = /* Frequency^-1 for monitor output (s) */
(PID.TID 0000.0001)                 1.000000000000000E+00
(PID.TID 0000.0001)     ;
(PID.TID 0000.0001) PTRACERS_dumpFreq = /* Frequency^-1 for snapshot output (s) */
(PID.TID 0000.0001)                 0.000000000000000E+00
(PID.TID 0000.0001)     ;
(PID.TID 0000.0001) PTRACERS_taveFreq = /* Frequency^-1 for time-Aver. output (s) */
(PID.TID 0000.0001)                 0.000000000000000E+00
(PID.TID 0000.0001)     ;
(PID.TID 0000.0001) PTRACERS_useRecords = /* all tracers in 1 file */
(PID.TID 0000.0001)                   F
(PID.TID 0000.0001)     ;
(PID.TID 0000.0001) PTRACERS_timeave_mnc = /* use MNC for Tave output */
(PID.TID 0000.0001)                   T
(PID.TID 0000.0001)     ;
(PID.TID 0000.0001) PTRACERS_snapshot_mnc = /* use MNC for snapshot output */
(PID.TID 0000.0001)                   T
(PID.TID 0000.0001)     ;
(PID.TID 0000.0001) PTRACERS_pickup_write_mnc = /* use MNC for writing pickups */
(PID.TID 0000.0001)                   F
(PID.TID 0000.0001)     ;
(PID.TID 0000.0001) PTRACERS_pickup_read_mnc = /* use MNC for reading pickups */
(PID.TID 0000.0001)                   F
(PID.TID 0000.0001)     ;
(PID.TID 0000.0001)  -----------------------------------
(PID.TID 0000.0001)  tracer number :    1
(PID.TID 0000.0001) PTRACERS_names = /* Tracer short name */
(PID.TID 0000.0001)               'DIC'
(PID.TID 0000.0001)     ;
(PID.TID 0000.0001) PTRACERS_long_names = /* Tracer long name */
(PID.TID 0000.0001)               ''
(PID.TID 0000.0001)     ;
(PID.TID 0000.0001) PTRACERS_ioLabel = /* tracer IO Label */
(PID.TID 0000.0001)               '01'
(PID.TID 0000.0001)     ;
(PID.TID 0000.0001) PTRACERS_advScheme = /* Advection Scheme */
(PID.TID 0000.0001)                      33
(PID.TID 0000.0001)     ;
(PID.TID 0000.0001) PTRACERS_SOM_Advection = /* tracer uses SOM advection scheme */
(PID.TID 0000.0001)                   F
(PID.TID 0000.0001)     ;
(PID.TID 0000.0001) PTRACERS_ImplVertAdv = /* implicit vert. advection flag */
(PID.TID 0000.0001)                   F
(PID.TID 0000.0001)     ;
(PID.TID 0000.0001) PTRACERS_MultiDimAdv = /* tracer uses Multi-Dim advection */
(PID.TID 0000.0001)                   T
(PID.TID 0000.0001)     ;
(PID.TID 0000.0001) PTRACERS_AdamsBashGtr = /* apply AB on tracer tendency */
(PID.TID 0000.0001)                   F
(PID.TID 0000.0001)     ;
(PID.TID 0000.0001) PTRACERS_AdamsBash_Tr = /* apply AB on passive tracer */
(PID.TID 0000.0001)                   F
(PID.TID 0000.0001)     ;
(PID.TID 0000.0001) PTRACERS_diffKh = /* Laplacian Diffusivity */
(PID.TID 0000.0001)                 0.000000000000000E+00
(PID.TID 0000.0001)     ;
(PID.TID 0000.0001) PTRACERS_diffK4 = /* Biharmonic Diffusivity */
(PID.TID 0000.0001)                 0.000000000000000E+00
(PID.TID 0000.0001)     ;
(PID.TID 0000.0001) PTRACERS_diffKrNr = /* Vertical Diffusivity */
(PID.TID 0000.0001)    23 @  1.000000000000000E-05              /* K =  1: 23 */
(PID.TID 0000.0001)     ;
(PID.TID 0000.0001) PTRACERS_useGMRedi = /* apply GM-Redi */
(PID.TID 0000.0001)                   T
(PID.TID 0000.0001)     ;
(PID.TID 0000.0001) PTRACERS_useDWNSLP = /* apply DOWN-SLOPE Flow */
(PID.TID 0000.0001)                   F
(PID.TID 0000.0001)     ;
(PID.TID 0000.0001) PTRACERS_useKPP = /* apply KPP scheme */
(PID.TID 0000.0001)                   T
(PID.TID 0000.0001)     ;
(PID.TID 0000.0001) PTRACERS_stayPositive = /* use Smolarkiewicz Hack for this tracer */
(PID.TID 0000.0001)                   T
(PID.TID 0000.0001)     ;
(PID.TID 0000.0001) PTRACERS_ref = /* Reference vertical profile */
(PID.TID 0000.0001)    23 @  0.000000000000000E+00              /* K =  1: 23 */
(PID.TID 0000.0001)     ;
(PID.TID 0000.0001) PTRACERS_EvPrRn =/* tracer conc. in Evap. & Rain */
(PID.TID 0000.0001)                 1.234567000000000E+05
(PID.TID 0000.0001)     ;
(PID.TID 0000.0001)  -----------------------------------
(PID.TID 0000.0001)  tracer number :    2
(PID.TID 0000.0001) PTRACERS_names = /* Tracer short name */
(PID.TID 0000.0001)               'NH4'
(PID.TID 0000.0001)     ;
(PID.TID 0000.0001) PTRACERS_long_names = /* Tracer long name */
(PID.TID 0000.0001)               ''
(PID.TID 0000.0001)     ;
(PID.TID 0000.0001) PTRACERS_ioLabel = /* tracer IO Label */
(PID.TID 0000.0001)               '02'
(PID.TID 0000.0001)     ;
(PID.TID 0000.0001) PTRACERS_advScheme = /* Advection Scheme */
(PID.TID 0000.0001)                      33
(PID.TID 0000.0001)     ;
(PID.TID 0000.0001) PTRACERS_SOM_Advection = /* tracer uses SOM advection scheme */
(PID.TID 0000.0001)                   F
(PID.TID 0000.0001)     ;
(PID.TID 0000.0001) PTRACERS_ImplVertAdv = /* implicit vert. advection flag */
(PID.TID 0000.0001)                   F
(PID.TID 0000.0001)     ;
(PID.TID 0000.0001) PTRACERS_MultiDimAdv = /* tracer uses Multi-Dim advection */
(PID.TID 0000.0001)                   T
(PID.TID 0000.0001)     ;
(PID.TID 0000.0001) PTRACERS_AdamsBashGtr = /* apply AB on tracer tendency */
(PID.TID 0000.0001)                   F
(PID.TID 0000.0001)     ;
(PID.TID 0000.0001) PTRACERS_AdamsBash_Tr = /* apply AB on passive tracer */
(PID.TID 0000.0001)                   F
(PID.TID 0000.0001)     ;
(PID.TID 0000.0001) PTRACERS_diffKh = /* Laplacian Diffusivity */
(PID.TID 0000.0001)                 0.000000000000000E+00
(PID.TID 0000.0001)     ;
(PID.TID 0000.0001) PTRACERS_diffK4 = /* Biharmonic Diffusivity */
(PID.TID 0000.0001)                 0.000000000000000E+00
(PID.TID 0000.0001)     ;
(PID.TID 0000.0001) PTRACERS_diffKrNr = /* Vertical Diffusivity */
(PID.TID 0000.0001)    23 @  1.000000000000000E-05              /* K =  1: 23 */
(PID.TID 0000.0001)     ;
(PID.TID 0000.0001) PTRACERS_useGMRedi = /* apply GM-Redi */
(PID.TID 0000.0001)                   T
(PID.TID 0000.0001)     ;
(PID.TID 0000.0001) PTRACERS_useDWNSLP = /* apply DOWN-SLOPE Flow */
(PID.TID 0000.0001)                   F
(PID.TID 0000.0001)     ;
(PID.TID 0000.0001) PTRACERS_useKPP = /* apply KPP scheme */
(PID.TID 0000.0001)                   T
(PID.TID 0000.0001)     ;
(PID.TID 0000.0001) PTRACERS_stayPositive = /* use Smolarkiewicz Hack for this tracer */
(PID.TID 0000.0001)                   T
(PID.TID 0000.0001)     ;
(PID.TID 0000.0001) PTRACERS_ref = /* Reference vertical profile */
(PID.TID 0000.0001)    23 @  0.000000000000000E+00              /* K =  1: 23 */
(PID.TID 0000.0001)     ;
(PID.TID 0000.0001) PTRACERS_EvPrRn =/* tracer conc. in Evap. & Rain */
(PID.TID 0000.0001)                 1.234567000000000E+05
(PID.TID 0000.0001)     ;
(PID.TID 0000.0001)  -----------------------------------
(PID.TID 0000.0001)  tracer number :    3
(PID.TID 0000.0001) PTRACERS_names = /* Tracer short name */
(PID.TID 0000.0001)               'NO2'
(PID.TID 0000.0001)     ;
(PID.TID 0000.0001) PTRACERS_long_names = /* Tracer long name */
(PID.TID 0000.0001)               ''
(PID.TID 0000.0001)     ;
(PID.TID 0000.0001) PTRACERS_ioLabel = /* tracer IO Label */
(PID.TID 0000.0001)               '03'
(PID.TID 0000.0001)     ;
(PID.TID 0000.0001) PTRACERS_advScheme = /* Advection Scheme */
(PID.TID 0000.0001)                      33
(PID.TID 0000.0001)     ;
(PID.TID 0000.0001) PTRACERS_SOM_Advection = /* tracer uses SOM advection scheme */
(PID.TID 0000.0001)                   F
(PID.TID 0000.0001)     ;
(PID.TID 0000.0001) PTRACERS_ImplVertAdv = /* implicit vert. advection flag */
(PID.TID 0000.0001)                   F
(PID.TID 0000.0001)     ;
(PID.TID 0000.0001) PTRACERS_MultiDimAdv = /* tracer uses Multi-Dim advection */
(PID.TID 0000.0001)                   T
(PID.TID 0000.0001)     ;
(PID.TID 0000.0001) PTRACERS_AdamsBashGtr = /* apply AB on tracer tendency */
(PID.TID 0000.0001)                   F
(PID.TID 0000.0001)     ;
(PID.TID 0000.0001) PTRACERS_AdamsBash_Tr = /* apply AB on passive tracer */
(PID.TID 0000.0001)                   F
(PID.TID 0000.0001)     ;
(PID.TID 0000.0001) PTRACERS_diffKh = /* Laplacian Diffusivity */
(PID.TID 0000.0001)                 0.000000000000000E+00
(PID.TID 0000.0001)     ;
(PID.TID 0000.0001) PTRACERS_diffK4 = /* Biharmonic Diffusivity */
(PID.TID 0000.0001)                 0.000000000000000E+00
(PID.TID 0000.0001)     ;
(PID.TID 0000.0001) PTRACERS_diffKrNr = /* Vertical Diffusivity */
(PID.TID 0000.0001)    23 @  1.000000000000000E-05              /* K =  1: 23 */
(PID.TID 0000.0001)     ;
(PID.TID 0000.0001) PTRACERS_useGMRedi = /* apply GM-Redi */
(PID.TID 0000.0001)                   T
(PID.TID 0000.0001)     ;
(PID.TID 0000.0001) PTRACERS_useDWNSLP = /* apply DOWN-SLOPE Flow */
(PID.TID 0000.0001)                   F
(PID.TID 0000.0001)     ;
(PID.TID 0000.0001) PTRACERS_useKPP = /* apply KPP scheme */
(PID.TID 0000.0001)                   T
(PID.TID 0000.0001)     ;
(PID.TID 0000.0001) PTRACERS_stayPositive = /* use Smolarkiewicz Hack for this tracer */
(PID.TID 0000.0001)                   T
(PID.TID 0000.0001)     ;
(PID.TID 0000.0001) PTRACERS_ref = /* Reference vertical profile */
(PID.TID 0000.0001)    23 @  0.000000000000000E+00              /* K =  1: 23 */
(PID.TID 0000.0001)     ;
(PID.TID 0000.0001) PTRACERS_EvPrRn =/* tracer conc. in Evap. & Rain */
(PID.TID 0000.0001)                 1.234567000000000E+05
(PID.TID 0000.0001)     ;
(PID.TID 0000.0001)  -----------------------------------
(PID.TID 0000.0001)  tracer number :    4
(PID.TID 0000.0001) PTRACERS_names = /* Tracer short name */
(PID.TID 0000.0001)               'NO3'
(PID.TID 0000.0001)     ;
(PID.TID 0000.0001) PTRACERS_long_names = /* Tracer long name */
(PID.TID 0000.0001)               ''
(PID.TID 0000.0001)     ;
(PID.TID 0000.0001) PTRACERS_ioLabel = /* tracer IO Label */
(PID.TID 0000.0001)               '04'
(PID.TID 0000.0001)     ;
(PID.TID 0000.0001) PTRACERS_advScheme = /* Advection Scheme */
(PID.TID 0000.0001)                      33
(PID.TID 0000.0001)     ;
(PID.TID 0000.0001) PTRACERS_SOM_Advection = /* tracer uses SOM advection scheme */
(PID.TID 0000.0001)                   F
(PID.TID 0000.0001)     ;
(PID.TID 0000.0001) PTRACERS_ImplVertAdv = /* implicit vert. advection flag */
(PID.TID 0000.0001)                   F
(PID.TID 0000.0001)     ;
(PID.TID 0000.0001) PTRACERS_MultiDimAdv = /* tracer uses Multi-Dim advection */
(PID.TID 0000.0001)                   T
(PID.TID 0000.0001)     ;
(PID.TID 0000.0001) PTRACERS_AdamsBashGtr = /* apply AB on tracer tendency */
(PID.TID 0000.0001)                   F
(PID.TID 0000.0001)     ;
(PID.TID 0000.0001) PTRACERS_AdamsBash_Tr = /* apply AB on passive tracer */
(PID.TID 0000.0001)                   F
(PID.TID 0000.0001)     ;
(PID.TID 0000.0001) PTRACERS_diffKh = /* Laplacian Diffusivity */
(PID.TID 0000.0001)                 0.000000000000000E+00
(PID.TID 0000.0001)     ;
(PID.TID 0000.0001) PTRACERS_diffK4 = /* Biharmonic Diffusivity */
(PID.TID 0000.0001)                 0.000000000000000E+00
(PID.TID 0000.0001)     ;
(PID.TID 0000.0001) PTRACERS_diffKrNr = /* Vertical Diffusivity */
(PID.TID 0000.0001)    23 @  1.000000000000000E-05              /* K =  1: 23 */
(PID.TID 0000.0001)     ;
(PID.TID 0000.0001) PTRACERS_useGMRedi = /* apply GM-Redi */
(PID.TID 0000.0001)                   T
(PID.TID 0000.0001)     ;
(PID.TID 0000.0001) PTRACERS_useDWNSLP = /* apply DOWN-SLOPE Flow */
(PID.TID 0000.0001)                   F
(PID.TID 0000.0001)     ;
(PID.TID 0000.0001) PTRACERS_useKPP = /* apply KPP scheme */
(PID.TID 0000.0001)                   T
(PID.TID 0000.0001)     ;
(PID.TID 0000.0001) PTRACERS_stayPositive = /* use Smolarkiewicz Hack for this tracer */
(PID.TID 0000.0001)                   T
(PID.TID 0000.0001)     ;
(PID.TID 0000.0001) PTRACERS_ref = /* Reference vertical profile */
(PID.TID 0000.0001)    23 @  0.000000000000000E+00              /* K =  1: 23 */
(PID.TID 0000.0001)     ;
(PID.TID 0000.0001) PTRACERS_EvPrRn =/* tracer conc. in Evap. & Rain */
(PID.TID 0000.0001)                 1.234567000000000E+05
(PID.TID 0000.0001)     ;
(PID.TID 0000.0001)  -----------------------------------
(PID.TID 0000.0001)  tracer number :    5
(PID.TID 0000.0001) PTRACERS_names = /* Tracer short name */
(PID.TID 0000.0001)               'PO4'
(PID.TID 0000.0001)     ;
(PID.TID 0000.0001) PTRACERS_long_names = /* Tracer long name */
(PID.TID 0000.0001)               ''
(PID.TID 0000.0001)     ;
(PID.TID 0000.0001) PTRACERS_ioLabel = /* tracer IO Label */
(PID.TID 0000.0001)               '05'
(PID.TID 0000.0001)     ;
(PID.TID 0000.0001) PTRACERS_advScheme = /* Advection Scheme */
(PID.TID 0000.0001)                      33
(PID.TID 0000.0001)     ;
(PID.TID 0000.0001) PTRACERS_SOM_Advection = /* tracer uses SOM advection scheme */
(PID.TID 0000.0001)                   F
(PID.TID 0000.0001)     ;
(PID.TID 0000.0001) PTRACERS_ImplVertAdv = /* implicit vert. advection flag */
(PID.TID 0000.0001)                   F
(PID.TID 0000.0001)     ;
(PID.TID 0000.0001) PTRACERS_MultiDimAdv = /* tracer uses Multi-Dim advection */
(PID.TID 0000.0001)                   T
(PID.TID 0000.0001)     ;
(PID.TID 0000.0001) PTRACERS_AdamsBashGtr = /* apply AB on tracer tendency */
(PID.TID 0000.0001)                   F
(PID.TID 0000.0001)     ;
(PID.TID 0000.0001) PTRACERS_AdamsBash_Tr = /* apply AB on passive tracer */
(PID.TID 0000.0001)                   F
(PID.TID 0000.0001)     ;
(PID.TID 0000.0001) PTRACERS_diffKh = /* Laplacian Diffusivity */
(PID.TID 0000.0001)                 0.000000000000000E+00
(PID.TID 0000.0001)     ;
(PID.TID 0000.0001) PTRACERS_diffK4 = /* Biharmonic Diffusivity */
(PID.TID 0000.0001)                 0.000000000000000E+00
(PID.TID 0000.0001)     ;
(PID.TID 0000.0001) PTRACERS_diffKrNr = /* Vertical Diffusivity */
(PID.TID 0000.0001)    23 @  1.000000000000000E-05              /* K =  1: 23 */
(PID.TID 0000.0001)     ;
(PID.TID 0000.0001) PTRACERS_useGMRedi = /* apply GM-Redi */
(PID.TID 0000.0001)                   T
(PID.TID 0000.0001)     ;
(PID.TID 0000.0001) PTRACERS_useDWNSLP = /* apply DOWN-SLOPE Flow */
(PID.TID 0000.0001)                   F
(PID.TID 0000.0001)     ;
(PID.TID 0000.0001) PTRACERS_useKPP = /* apply KPP scheme */
(PID.TID 0000.0001)                   T
(PID.TID 0000.0001)     ;
(PID.TID 0000.0001) PTRACERS_stayPositive = /* use Smolarkiewicz Hack for this tracer */
(PID.TID 0000.0001)                   T
(PID.TID 0000.0001)     ;
(PID.TID 0000.0001) PTRACERS_ref = /* Reference vertical profile */
(PID.TID 0000.0001)    23 @  0.000000000000000E+00              /* K =  1: 23 */
(PID.TID 0000.0001)     ;
(PID.TID 0000.0001) PTRACERS_EvPrRn =/* tracer conc. in Evap. & Rain */
(PID.TID 0000.0001)                 1.234567000000000E+05
(PID.TID 0000.0001)     ;
(PID.TID 0000.0001)  -----------------------------------
(PID.TID 0000.0001)  tracer number :    6
(PID.TID 0000.0001) PTRACERS_names = /* Tracer short name */
(PID.TID 0000.0001)               'SiO2'
(PID.TID 0000.0001)     ;
(PID.TID 0000.0001) PTRACERS_long_names = /* Tracer long name */
(PID.TID 0000.0001)               ''
(PID.TID 0000.0001)     ;
(PID.TID 0000.0001) PTRACERS_ioLabel = /* tracer IO Label */
(PID.TID 0000.0001)               '06'
(PID.TID 0000.0001)     ;
(PID.TID 0000.0001) PTRACERS_advScheme = /* Advection Scheme */
(PID.TID 0000.0001)                      33
(PID.TID 0000.0001)     ;
(PID.TID 0000.0001) PTRACERS_SOM_Advection = /* tracer uses SOM advection scheme */
(PID.TID 0000.0001)                   F
(PID.TID 0000.0001)     ;
(PID.TID 0000.0001) PTRACERS_ImplVertAdv = /* implicit vert. advection flag */
(PID.TID 0000.0001)                   F
(PID.TID 0000.0001)     ;
(PID.TID 0000.0001) PTRACERS_MultiDimAdv = /* tracer uses Multi-Dim advection */
(PID.TID 0000.0001)                   T
(PID.TID 0000.0001)     ;
(PID.TID 0000.0001) PTRACERS_AdamsBashGtr = /* apply AB on tracer tendency */
(PID.TID 0000.0001)                   F
(PID.TID 0000.0001)     ;
(PID.TID 0000.0001) PTRACERS_AdamsBash_Tr = /* apply AB on passive tracer */
(PID.TID 0000.0001)                   F
(PID.TID 0000.0001)     ;
(PID.TID 0000.0001) PTRACERS_diffKh = /* Laplacian Diffusivity */
(PID.TID 0000.0001)                 0.000000000000000E+00
(PID.TID 0000.0001)     ;
(PID.TID 0000.0001) PTRACERS_diffK4 = /* Biharmonic Diffusivity */
(PID.TID 0000.0001)                 0.000000000000000E+00
(PID.TID 0000.0001)     ;
(PID.TID 0000.0001) PTRACERS_diffKrNr = /* Vertical Diffusivity */
(PID.TID 0000.0001)    23 @  1.000000000000000E-05              /* K =  1: 23 */
(PID.TID 0000.0001)     ;
(PID.TID 0000.0001) PTRACERS_useGMRedi = /* apply GM-Redi */
(PID.TID 0000.0001)                   T
(PID.TID 0000.0001)     ;
(PID.TID 0000.0001) PTRACERS_useDWNSLP = /* apply DOWN-SLOPE Flow */
(PID.TID 0000.0001)                   F
(PID.TID 0000.0001)     ;
(PID.TID 0000.0001) PTRACERS_useKPP = /* apply KPP scheme */
(PID.TID 0000.0001)                   T
(PID.TID 0000.0001)     ;
(PID.TID 0000.0001) PTRACERS_stayPositive = /* use Smolarkiewicz Hack for this tracer */
(PID.TID 0000.0001)                   T
(PID.TID 0000.0001)     ;
(PID.TID 0000.0001) PTRACERS_ref = /* Reference vertical profile */
(PID.TID 0000.0001)    23 @  0.000000000000000E+00              /* K =  1: 23 */
(PID.TID 0000.0001)     ;
(PID.TID 0000.0001) PTRACERS_EvPrRn =/* tracer conc. in Evap. & Rain */
(PID.TID 0000.0001)                 1.234567000000000E+05
(PID.TID 0000.0001)     ;
(PID.TID 0000.0001)  -----------------------------------
(PID.TID 0000.0001)  tracer number :    7
(PID.TID 0000.0001) PTRACERS_names = /* Tracer short name */
(PID.TID 0000.0001)               'FeT'
(PID.TID 0000.0001)     ;
(PID.TID 0000.0001) PTRACERS_long_names = /* Tracer long name */
(PID.TID 0000.0001)               ''
(PID.TID 0000.0001)     ;
(PID.TID 0000.0001) PTRACERS_ioLabel = /* tracer IO Label */
(PID.TID 0000.0001)               '07'
(PID.TID 0000.0001)     ;
(PID.TID 0000.0001) PTRACERS_advScheme = /* Advection Scheme */
(PID.TID 0000.0001)                      33
(PID.TID 0000.0001)     ;
(PID.TID 0000.0001) PTRACERS_SOM_Advection = /* tracer uses SOM advection scheme */
(PID.TID 0000.0001)                   F
(PID.TID 0000.0001)     ;
(PID.TID 0000.0001) PTRACERS_ImplVertAdv = /* implicit vert. advection flag */
(PID.TID 0000.0001)                   F
(PID.TID 0000.0001)     ;
(PID.TID 0000.0001) PTRACERS_MultiDimAdv = /* tracer uses Multi-Dim advection */
(PID.TID 0000.0001)                   T
(PID.TID 0000.0001)     ;
(PID.TID 0000.0001) PTRACERS_AdamsBashGtr = /* apply AB on tracer tendency */
(PID.TID 0000.0001)                   F
(PID.TID 0000.0001)     ;
(PID.TID 0000.0001) PTRACERS_AdamsBash_Tr = /* apply AB on passive tracer */
(PID.TID 0000.0001)                   F
(PID.TID 0000.0001)     ;
(PID.TID 0000.0001) PTRACERS_diffKh = /* Laplacian Diffusivity */
(PID.TID 0000.0001)                 0.000000000000000E+00
(PID.TID 0000.0001)     ;
(PID.TID 0000.0001) PTRACERS_diffK4 = /* Biharmonic Diffusivity */
(PID.TID 0000.0001)                 0.000000000000000E+00
(PID.TID 0000.0001)     ;
(PID.TID 0000.0001) PTRACERS_diffKrNr = /* Vertical Diffusivity */
(PID.TID 0000.0001)    23 @  1.000000000000000E-05              /* K =  1: 23 */
(PID.TID 0000.0001)     ;
(PID.TID 0000.0001) PTRACERS_useGMRedi = /* apply GM-Redi */
(PID.TID 0000.0001)                   T
(PID.TID 0000.0001)     ;
(PID.TID 0000.0001) PTRACERS_useDWNSLP = /* apply DOWN-SLOPE Flow */
(PID.TID 0000.0001)                   F
(PID.TID 0000.0001)     ;
(PID.TID 0000.0001) PTRACERS_useKPP = /* apply KPP scheme */
(PID.TID 0000.0001)                   T
(PID.TID 0000.0001)     ;
(PID.TID 0000.0001) PTRACERS_stayPositive = /* use Smolarkiewicz Hack for this tracer */
(PID.TID 0000.0001)                   T
(PID.TID 0000.0001)     ;
(PID.TID 0000.0001) PTRACERS_ref = /* Reference vertical profile */
(PID.TID 0000.0001)    23 @  0.000000000000000E+00              /* K =  1: 23 */
(PID.TID 0000.0001)     ;
(PID.TID 0000.0001) PTRACERS_EvPrRn =/* tracer conc. in Evap. & Rain */
(PID.TID 0000.0001)                 1.234567000000000E+05
(PID.TID 0000.0001)     ;
(PID.TID 0000.0001)  -----------------------------------
(PID.TID 0000.0001)  tracer number :    8
(PID.TID 0000.0001) PTRACERS_names = /* Tracer short name */
(PID.TID 0000.0001)               'DOC'
(PID.TID 0000.0001)     ;
(PID.TID 0000.0001) PTRACERS_long_names = /* Tracer long name */
(PID.TID 0000.0001)               ''
(PID.TID 0000.0001)     ;
(PID.TID 0000.0001) PTRACERS_ioLabel = /* tracer IO Label */
(PID.TID 0000.0001)               '08'
(PID.TID 0000.0001)     ;
(PID.TID 0000.0001) PTRACERS_advScheme = /* Advection Scheme */
(PID.TID 0000.0001)                      33
(PID.TID 0000.0001)     ;
(PID.TID 0000.0001) PTRACERS_SOM_Advection = /* tracer uses SOM advection scheme */
(PID.TID 0000.0001)                   F
(PID.TID 0000.0001)     ;
(PID.TID 0000.0001) PTRACERS_ImplVertAdv = /* implicit vert. advection flag */
(PID.TID 0000.0001)                   F
(PID.TID 0000.0001)     ;
(PID.TID 0000.0001) PTRACERS_MultiDimAdv = /* tracer uses Multi-Dim advection */
(PID.TID 0000.0001)                   T
(PID.TID 0000.0001)     ;
(PID.TID 0000.0001) PTRACERS_AdamsBashGtr = /* apply AB on tracer tendency */
(PID.TID 0000.0001)                   F
(PID.TID 0000.0001)     ;
(PID.TID 0000.0001) PTRACERS_AdamsBash_Tr = /* apply AB on passive tracer */
(PID.TID 0000.0001)                   F
(PID.TID 0000.0001)     ;
(PID.TID 0000.0001) PTRACERS_diffKh = /* Laplacian Diffusivity */
(PID.TID 0000.0001)                 0.000000000000000E+00
(PID.TID 0000.0001)     ;
(PID.TID 0000.0001) PTRACERS_diffK4 = /* Biharmonic Diffusivity */
(PID.TID 0000.0001)                 0.000000000000000E+00
(PID.TID 0000.0001)     ;
(PID.TID 0000.0001) PTRACERS_diffKrNr = /* Vertical Diffusivity */
(PID.TID 0000.0001)    23 @  1.000000000000000E-05              /* K =  1: 23 */
(PID.TID 0000.0001)     ;
(PID.TID 0000.0001) PTRACERS_useGMRedi = /* apply GM-Redi */
(PID.TID 0000.0001)                   T
(PID.TID 0000.0001)     ;
(PID.TID 0000.0001) PTRACERS_useDWNSLP = /* apply DOWN-SLOPE Flow */
(PID.TID 0000.0001)                   F
(PID.TID 0000.0001)     ;
(PID.TID 0000.0001) PTRACERS_useKPP = /* apply KPP scheme */
(PID.TID 0000.0001)                   T
(PID.TID 0000.0001)     ;
(PID.TID 0000.0001) PTRACERS_stayPositive = /* use Smolarkiewicz Hack for this tracer */
(PID.TID 0000.0001)                   T
(PID.TID 0000.0001)     ;
(PID.TID 0000.0001) PTRACERS_ref = /* Reference vertical profile */
(PID.TID 0000.0001)    23 @  0.000000000000000E+00              /* K =  1: 23 */
(PID.TID 0000.0001)     ;
(PID.TID 0000.0001) PTRACERS_EvPrRn =/* tracer conc. in Evap. & Rain */
(PID.TID 0000.0001)                 1.234567000000000E+05
(PID.TID 0000.0001)     ;
(PID.TID 0000.0001)  -----------------------------------
(PID.TID 0000.0001)  tracer number :    9
(PID.TID 0000.0001) PTRACERS_names = /* Tracer short name */
(PID.TID 0000.0001)               'DON'
(PID.TID 0000.0001)     ;
(PID.TID 0000.0001) PTRACERS_long_names = /* Tracer long name */
(PID.TID 0000.0001)               ''
(PID.TID 0000.0001)     ;
(PID.TID 0000.0001) PTRACERS_ioLabel = /* tracer IO Label */
(PID.TID 0000.0001)               '09'
(PID.TID 0000.0001)     ;
(PID.TID 0000.0001) PTRACERS_advScheme = /* Advection Scheme */
(PID.TID 0000.0001)                      33
(PID.TID 0000.0001)     ;
(PID.TID 0000.0001) PTRACERS_SOM_Advection = /* tracer uses SOM advection scheme */
(PID.TID 0000.0001)                   F
(PID.TID 0000.0001)     ;
(PID.TID 0000.0001) PTRACERS_ImplVertAdv = /* implicit vert. advection flag */
(PID.TID 0000.0001)                   F
(PID.TID 0000.0001)     ;
(PID.TID 0000.0001) PTRACERS_MultiDimAdv = /* tracer uses Multi-Dim advection */
(PID.TID 0000.0001)                   T
(PID.TID 0000.0001)     ;
(PID.TID 0000.0001) PTRACERS_AdamsBashGtr = /* apply AB on tracer tendency */
(PID.TID 0000.0001)                   F
(PID.TID 0000.0001)     ;
(PID.TID 0000.0001) PTRACERS_AdamsBash_Tr = /* apply AB on passive tracer */
(PID.TID 0000.0001)                   F
(PID.TID 0000.0001)     ;
(PID.TID 0000.0001) PTRACERS_diffKh = /* Laplacian Diffusivity */
(PID.TID 0000.0001)                 0.000000000000000E+00
(PID.TID 0000.0001)     ;
(PID.TID 0000.0001) PTRACERS_diffK4 = /* Biharmonic Diffusivity */
(PID.TID 0000.0001)                 0.000000000000000E+00
(PID.TID 0000.0001)     ;
(PID.TID 0000.0001) PTRACERS_diffKrNr = /* Vertical Diffusivity */
(PID.TID 0000.0001)    23 @  1.000000000000000E-05              /* K =  1: 23 */
(PID.TID 0000.0001)     ;
(PID.TID 0000.0001) PTRACERS_useGMRedi = /* apply GM-Redi */
(PID.TID 0000.0001)                   T
(PID.TID 0000.0001)     ;
(PID.TID 0000.0001) PTRACERS_useDWNSLP = /* apply DOWN-SLOPE Flow */
(PID.TID 0000.0001)                   F
(PID.TID 0000.0001)     ;
(PID.TID 0000.0001) PTRACERS_useKPP = /* apply KPP scheme */
(PID.TID 0000.0001)                   T
(PID.TID 0000.0001)     ;
(PID.TID 0000.0001) PTRACERS_stayPositive = /* use Smolarkiewicz Hack for this tracer */
(PID.TID 0000.0001)                   T
(PID.TID 0000.0001)     ;
(PID.TID 0000.0001) PTRACERS_ref = /* Reference vertical profile */
(PID.TID 0000.0001)    23 @  0.000000000000000E+00              /* K =  1: 23 */
(PID.TID 0000.0001)     ;
(PID.TID 0000.0001) PTRACERS_EvPrRn =/* tracer conc. in Evap. & Rain */
(PID.TID 0000.0001)                 1.234567000000000E+05
(PID.TID 0000.0001)     ;
(PID.TID 0000.0001)  -----------------------------------
(PID.TID 0000.0001)  tracer number :   10
(PID.TID 0000.0001) PTRACERS_names = /* Tracer short name */
(PID.TID 0000.0001)               'DOP'
(PID.TID 0000.0001)     ;
(PID.TID 0000.0001) PTRACERS_long_names = /* Tracer long name */
(PID.TID 0000.0001)               ''
(PID.TID 0000.0001)     ;
(PID.TID 0000.0001) PTRACERS_ioLabel = /* tracer IO Label */
(PID.TID 0000.0001)               '10'
(PID.TID 0000.0001)     ;
(PID.TID 0000.0001) PTRACERS_advScheme = /* Advection Scheme */
(PID.TID 0000.0001)                      33
(PID.TID 0000.0001)     ;
(PID.TID 0000.0001) PTRACERS_SOM_Advection = /* tracer uses SOM advection scheme */
(PID.TID 0000.0001)                   F
(PID.TID 0000.0001)     ;
(PID.TID 0000.0001) PTRACERS_ImplVertAdv = /* implicit vert. advection flag */
(PID.TID 0000.0001)                   F
(PID.TID 0000.0001)     ;
(PID.TID 0000.0001) PTRACERS_MultiDimAdv = /* tracer uses Multi-Dim advection */
(PID.TID 0000.0001)                   T
(PID.TID 0000.0001)     ;
(PID.TID 0000.0001) PTRACERS_AdamsBashGtr = /* apply AB on tracer tendency */
(PID.TID 0000.0001)                   F
(PID.TID 0000.0001)     ;
(PID.TID 0000.0001) PTRACERS_AdamsBash_Tr = /* apply AB on passive tracer */
(PID.TID 0000.0001)                   F
(PID.TID 0000.0001)     ;
(PID.TID 0000.0001) PTRACERS_diffKh = /* Laplacian Diffusivity */
(PID.TID 0000.0001)                 0.000000000000000E+00
(PID.TID 0000.0001)     ;
(PID.TID 0000.0001) PTRACERS_diffK4 = /* Biharmonic Diffusivity */
(PID.TID 0000.0001)                 0.000000000000000E+00
(PID.TID 0000.0001)     ;
(PID.TID 0000.0001) PTRACERS_diffKrNr = /* Vertical Diffusivity */
(PID.TID 0000.0001)    23 @  1.000000000000000E-05              /* K =  1: 23 */
(PID.TID 0000.0001)     ;
(PID.TID 0000.0001) PTRACERS_useGMRedi = /* apply GM-Redi */
(PID.TID 0000.0001)                   T
(PID.TID 0000.0001)     ;
(PID.TID 0000.0001) PTRACERS_useDWNSLP = /* apply DOWN-SLOPE Flow */
(PID.TID 0000.0001)                   F
(PID.TID 0000.0001)     ;
(PID.TID 0000.0001) PTRACERS_useKPP = /* apply KPP scheme */
(PID.TID 0000.0001)                   T
(PID.TID 0000.0001)     ;
(PID.TID 0000.0001) PTRACERS_stayPositive = /* use Smolarkiewicz Hack for this tracer */
(PID.TID 0000.0001)                   T
(PID.TID 0000.0001)     ;
(PID.TID 0000.0001) PTRACERS_ref = /* Reference vertical profile */
(PID.TID 0000.0001)    23 @  0.000000000000000E+00              /* K =  1: 23 */
(PID.TID 0000.0001)     ;
(PID.TID 0000.0001) PTRACERS_EvPrRn =/* tracer conc. in Evap. & Rain */
(PID.TID 0000.0001)                 1.234567000000000E+05
(PID.TID 0000.0001)     ;
(PID.TID 0000.0001)  -----------------------------------
(PID.TID 0000.0001)  tracer number :   11
(PID.TID 0000.0001) PTRACERS_names = /* Tracer short name */
(PID.TID 0000.0001)               'DOFe'
(PID.TID 0000.0001)     ;
(PID.TID 0000.0001) PTRACERS_long_names = /* Tracer long name */
(PID.TID 0000.0001)               ''
(PID.TID 0000.0001)     ;
(PID.TID 0000.0001) PTRACERS_ioLabel = /* tracer IO Label */
(PID.TID 0000.0001)               '11'
(PID.TID 0000.0001)     ;
(PID.TID 0000.0001) PTRACERS_advScheme = /* Advection Scheme */
(PID.TID 0000.0001)                      33
(PID.TID 0000.0001)     ;
(PID.TID 0000.0001) PTRACERS_SOM_Advection = /* tracer uses SOM advection scheme */
(PID.TID 0000.0001)                   F
(PID.TID 0000.0001)     ;
(PID.TID 0000.0001) PTRACERS_ImplVertAdv = /* implicit vert. advection flag */
(PID.TID 0000.0001)                   F
(PID.TID 0000.0001)     ;
(PID.TID 0000.0001) PTRACERS_MultiDimAdv = /* tracer uses Multi-Dim advection */
(PID.TID 0000.0001)                   T
(PID.TID 0000.0001)     ;
(PID.TID 0000.0001) PTRACERS_AdamsBashGtr = /* apply AB on tracer tendency */
(PID.TID 0000.0001)                   F
(PID.TID 0000.0001)     ;
(PID.TID 0000.0001) PTRACERS_AdamsBash_Tr = /* apply AB on passive tracer */
(PID.TID 0000.0001)                   F
(PID.TID 0000.0001)     ;
(PID.TID 0000.0001) PTRACERS_diffKh = /* Laplacian Diffusivity */
(PID.TID 0000.0001)                 0.000000000000000E+00
(PID.TID 0000.0001)     ;
(PID.TID 0000.0001) PTRACERS_diffK4 = /* Biharmonic Diffusivity */
(PID.TID 0000.0001)                 0.000000000000000E+00
(PID.TID 0000.0001)     ;
(PID.TID 0000.0001) PTRACERS_diffKrNr = /* Vertical Diffusivity */
(PID.TID 0000.0001)    23 @  1.000000000000000E-05              /* K =  1: 23 */
(PID.TID 0000.0001)     ;
(PID.TID 0000.0001) PTRACERS_useGMRedi = /* apply GM-Redi */
(PID.TID 0000.0001)                   T
(PID.TID 0000.0001)     ;
(PID.TID 0000.0001) PTRACERS_useDWNSLP = /* apply DOWN-SLOPE Flow */
(PID.TID 0000.0001)                   F
(PID.TID 0000.0001)     ;
(PID.TID 0000.0001) PTRACERS_useKPP = /* apply KPP scheme */
(PID.TID 0000.0001)                   T
(PID.TID 0000.0001)     ;
(PID.TID 0000.0001) PTRACERS_stayPositive = /* use Smolarkiewicz Hack for this tracer */
(PID.TID 0000.0001)                   T
(PID.TID 0000.0001)     ;
(PID.TID 0000.0001) PTRACERS_ref = /* Reference vertical profile */
(PID.TID 0000.0001)    23 @  0.000000000000000E+00              /* K =  1: 23 */
(PID.TID 0000.0001)     ;
(PID.TID 0000.0001) PTRACERS_EvPrRn =/* tracer conc. in Evap. & Rain */
(PID.TID 0000.0001)                 1.234567000000000E+05
(PID.TID 0000.0001)     ;
(PID.TID 0000.0001)  -----------------------------------
(PID.TID 0000.0001)  tracer number :   12
(PID.TID 0000.0001) PTRACERS_names = /* Tracer short name */
(PID.TID 0000.0001)               'POC'
(PID.TID 0000.0001)     ;
(PID.TID 0000.0001) PTRACERS_long_names = /* Tracer long name */
(PID.TID 0000.0001)               ''
(PID.TID 0000.0001)     ;
(PID.TID 0000.0001) PTRACERS_ioLabel = /* tracer IO Label */
(PID.TID 0000.0001)               '12'
(PID.TID 0000.0001)     ;
(PID.TID 0000.0001) PTRACERS_advScheme = /* Advection Scheme */
(PID.TID 0000.0001)                      33
(PID.TID 0000.0001)     ;
(PID.TID 0000.0001) PTRACERS_SOM_Advection = /* tracer uses SOM advection scheme */
(PID.TID 0000.0001)                   F
(PID.TID 0000.0001)     ;
(PID.TID 0000.0001) PTRACERS_ImplVertAdv = /* implicit vert. advection flag */
(PID.TID 0000.0001)                   F
(PID.TID 0000.0001)     ;
(PID.TID 0000.0001) PTRACERS_MultiDimAdv = /* tracer uses Multi-Dim advection */
(PID.TID 0000.0001)                   T
(PID.TID 0000.0001)     ;
(PID.TID 0000.0001) PTRACERS_AdamsBashGtr = /* apply AB on tracer tendency */
(PID.TID 0000.0001)                   F
(PID.TID 0000.0001)     ;
(PID.TID 0000.0001) PTRACERS_AdamsBash_Tr = /* apply AB on passive tracer */
(PID.TID 0000.0001)                   F
(PID.TID 0000.0001)     ;
(PID.TID 0000.0001) PTRACERS_diffKh = /* Laplacian Diffusivity */
(PID.TID 0000.0001)                 0.000000000000000E+00
(PID.TID 0000.0001)     ;
(PID.TID 0000.0001) PTRACERS_diffK4 = /* Biharmonic Diffusivity */
(PID.TID 0000.0001)                 0.000000000000000E+00
(PID.TID 0000.0001)     ;
(PID.TID 0000.0001) PTRACERS_diffKrNr = /* Vertical Diffusivity */
(PID.TID 0000.0001)    23 @  1.000000000000000E-05              /* K =  1: 23 */
(PID.TID 0000.0001)     ;
(PID.TID 0000.0001) PTRACERS_useGMRedi = /* apply GM-Redi */
(PID.TID 0000.0001)                   T
(PID.TID 0000.0001)     ;
(PID.TID 0000.0001) PTRACERS_useDWNSLP = /* apply DOWN-SLOPE Flow */
(PID.TID 0000.0001)                   F
(PID.TID 0000.0001)     ;
(PID.TID 0000.0001) PTRACERS_useKPP = /* apply KPP scheme */
(PID.TID 0000.0001)                   T
(PID.TID 0000.0001)     ;
(PID.TID 0000.0001) PTRACERS_stayPositive = /* use Smolarkiewicz Hack for this tracer */
(PID.TID 0000.0001)                   T
(PID.TID 0000.0001)     ;
(PID.TID 0000.0001) PTRACERS_ref = /* Reference vertical profile */
(PID.TID 0000.0001)    23 @  0.000000000000000E+00              /* K =  1: 23 */
(PID.TID 0000.0001)     ;
(PID.TID 0000.0001) PTRACERS_EvPrRn =/* tracer conc. in Evap. & Rain */
(PID.TID 0000.0001)                 1.234567000000000E+05
(PID.TID 0000.0001)     ;
(PID.TID 0000.0001)  -----------------------------------
(PID.TID 0000.0001)  tracer number :   13
(PID.TID 0000.0001) PTRACERS_names = /* Tracer short name */
(PID.TID 0000.0001)               'PON'
(PID.TID 0000.0001)     ;
(PID.TID 0000.0001) PTRACERS_long_names = /* Tracer long name */
(PID.TID 0000.0001)               ''
(PID.TID 0000.0001)     ;
(PID.TID 0000.0001) PTRACERS_ioLabel = /* tracer IO Label */
(PID.TID 0000.0001)               '13'
(PID.TID 0000.0001)     ;
(PID.TID 0000.0001) PTRACERS_advScheme = /* Advection Scheme */
(PID.TID 0000.0001)                      33
(PID.TID 0000.0001)     ;
(PID.TID 0000.0001) PTRACERS_SOM_Advection = /* tracer uses SOM advection scheme */
(PID.TID 0000.0001)                   F
(PID.TID 0000.0001)     ;
(PID.TID 0000.0001) PTRACERS_ImplVertAdv = /* implicit vert. advection flag */
(PID.TID 0000.0001)                   F
(PID.TID 0000.0001)     ;
(PID.TID 0000.0001) PTRACERS_MultiDimAdv = /* tracer uses Multi-Dim advection */
(PID.TID 0000.0001)                   T
(PID.TID 0000.0001)     ;
(PID.TID 0000.0001) PTRACERS_AdamsBashGtr = /* apply AB on tracer tendency */
(PID.TID 0000.0001)                   F
(PID.TID 0000.0001)     ;
(PID.TID 0000.0001) PTRACERS_AdamsBash_Tr = /* apply AB on passive tracer */
(PID.TID 0000.0001)                   F
(PID.TID 0000.0001)     ;
(PID.TID 0000.0001) PTRACERS_diffKh = /* Laplacian Diffusivity */
(PID.TID 0000.0001)                 0.000000000000000E+00
(PID.TID 0000.0001)     ;
(PID.TID 0000.0001) PTRACERS_diffK4 = /* Biharmonic Diffusivity */
(PID.TID 0000.0001)                 0.000000000000000E+00
(PID.TID 0000.0001)     ;
(PID.TID 0000.0001) PTRACERS_diffKrNr = /* Vertical Diffusivity */
(PID.TID 0000.0001)    23 @  1.000000000000000E-05              /* K =  1: 23 */
(PID.TID 0000.0001)     ;
(PID.TID 0000.0001) PTRACERS_useGMRedi = /* apply GM-Redi */
(PID.TID 0000.0001)                   T
(PID.TID 0000.0001)     ;
(PID.TID 0000.0001) PTRACERS_useDWNSLP = /* apply DOWN-SLOPE Flow */
(PID.TID 0000.0001)                   F
(PID.TID 0000.0001)     ;
(PID.TID 0000.0001) PTRACERS_useKPP = /* apply KPP scheme */
(PID.TID 0000.0001)                   T
(PID.TID 0000.0001)     ;
(PID.TID 0000.0001) PTRACERS_stayPositive = /* use Smolarkiewicz Hack for this tracer */
(PID.TID 0000.0001)                   T
(PID.TID 0000.0001)     ;
(PID.TID 0000.0001) PTRACERS_ref = /* Reference vertical profile */
(PID.TID 0000.0001)    23 @  0.000000000000000E+00              /* K =  1: 23 */
(PID.TID 0000.0001)     ;
(PID.TID 0000.0001) PTRACERS_EvPrRn =/* tracer conc. in Evap. & Rain */
(PID.TID 0000.0001)                 1.234567000000000E+05
(PID.TID 0000.0001)     ;
(PID.TID 0000.0001)  -----------------------------------
(PID.TID 0000.0001)  tracer number :   14
(PID.TID 0000.0001) PTRACERS_names = /* Tracer short name */
(PID.TID 0000.0001)               'POP'
(PID.TID 0000.0001)     ;
(PID.TID 0000.0001) PTRACERS_long_names = /* Tracer long name */
(PID.TID 0000.0001)               ''
(PID.TID 0000.0001)     ;
(PID.TID 0000.0001) PTRACERS_ioLabel = /* tracer IO Label */
(PID.TID 0000.0001)               '14'
(PID.TID 0000.0001)     ;
(PID.TID 0000.0001) PTRACERS_advScheme = /* Advection Scheme */
(PID.TID 0000.0001)                      33
(PID.TID 0000.0001)     ;
(PID.TID 0000.0001) PTRACERS_SOM_Advection = /* tracer uses SOM advection scheme */
(PID.TID 0000.0001)                   F
(PID.TID 0000.0001)     ;
(PID.TID 0000.0001) PTRACERS_ImplVertAdv = /* implicit vert. advection flag */
(PID.TID 0000.0001)                   F
(PID.TID 0000.0001)     ;
(PID.TID 0000.0001) PTRACERS_MultiDimAdv = /* tracer uses Multi-Dim advection */
(PID.TID 0000.0001)                   T
(PID.TID 0000.0001)     ;
(PID.TID 0000.0001) PTRACERS_AdamsBashGtr = /* apply AB on tracer tendency */
(PID.TID 0000.0001)                   F
(PID.TID 0000.0001)     ;
(PID.TID 0000.0001) PTRACERS_AdamsBash_Tr = /* apply AB on passive tracer */
(PID.TID 0000.0001)                   F
(PID.TID 0000.0001)     ;
(PID.TID 0000.0001) PTRACERS_diffKh = /* Laplacian Diffusivity */
(PID.TID 0000.0001)                 0.000000000000000E+00
(PID.TID 0000.0001)     ;
(PID.TID 0000.0001) PTRACERS_diffK4 = /* Biharmonic Diffusivity */
(PID.TID 0000.0001)                 0.000000000000000E+00
(PID.TID 0000.0001)     ;
(PID.TID 0000.0001) PTRACERS_diffKrNr = /* Vertical Diffusivity */
(PID.TID 0000.0001)    23 @  1.000000000000000E-05              /* K =  1: 23 */
(PID.TID 0000.0001)     ;
(PID.TID 0000.0001) PTRACERS_useGMRedi = /* apply GM-Redi */
(PID.TID 0000.0001)                   T
(PID.TID 0000.0001)     ;
(PID.TID 0000.0001) PTRACERS_useDWNSLP = /* apply DOWN-SLOPE Flow */
(PID.TID 0000.0001)                   F
(PID.TID 0000.0001)     ;
(PID.TID 0000.0001) PTRACERS_useKPP = /* apply KPP scheme */
(PID.TID 0000.0001)                   T
(PID.TID 0000.0001)     ;
(PID.TID 0000.0001) PTRACERS_stayPositive = /* use Smolarkiewicz Hack for this tracer */
(PID.TID 0000.0001)                   T
(PID.TID 0000.0001)     ;
(PID.TID 0000.0001) PTRACERS_ref = /* Reference vertical profile */
(PID.TID 0000.0001)    23 @  0.000000000000000E+00              /* K =  1: 23 */
(PID.TID 0000.0001)     ;
(PID.TID 0000.0001) PTRACERS_EvPrRn =/* tracer conc. in Evap. & Rain */
(PID.TID 0000.0001)                 1.234567000000000E+05
(PID.TID 0000.0001)     ;
(PID.TID 0000.0001)  -----------------------------------
(PID.TID 0000.0001)  tracer number :   15
(PID.TID 0000.0001) PTRACERS_names = /* Tracer short name */
(PID.TID 0000.0001)               'POSi'
(PID.TID 0000.0001)     ;
(PID.TID 0000.0001) PTRACERS_long_names = /* Tracer long name */
(PID.TID 0000.0001)               ''
(PID.TID 0000.0001)     ;
(PID.TID 0000.0001) PTRACERS_ioLabel = /* tracer IO Label */
(PID.TID 0000.0001)               '15'
(PID.TID 0000.0001)     ;
(PID.TID 0000.0001) PTRACERS_advScheme = /* Advection Scheme */
(PID.TID 0000.0001)                      33
(PID.TID 0000.0001)     ;
(PID.TID 0000.0001) PTRACERS_SOM_Advection = /* tracer uses SOM advection scheme */
(PID.TID 0000.0001)                   F
(PID.TID 0000.0001)     ;
(PID.TID 0000.0001) PTRACERS_ImplVertAdv = /* implicit vert. advection flag */
(PID.TID 0000.0001)                   F
(PID.TID 0000.0001)     ;
(PID.TID 0000.0001) PTRACERS_MultiDimAdv = /* tracer uses Multi-Dim advection */
(PID.TID 0000.0001)                   T
(PID.TID 0000.0001)     ;
(PID.TID 0000.0001) PTRACERS_AdamsBashGtr = /* apply AB on tracer tendency */
(PID.TID 0000.0001)                   F
(PID.TID 0000.0001)     ;
(PID.TID 0000.0001) PTRACERS_AdamsBash_Tr = /* apply AB on passive tracer */
(PID.TID 0000.0001)                   F
(PID.TID 0000.0001)     ;
(PID.TID 0000.0001) PTRACERS_diffKh = /* Laplacian Diffusivity */
(PID.TID 0000.0001)                 0.000000000000000E+00
(PID.TID 0000.0001)     ;
(PID.TID 0000.0001) PTRACERS_diffK4 = /* Biharmonic Diffusivity */
(PID.TID 0000.0001)                 0.000000000000000E+00
(PID.TID 0000.0001)     ;
(PID.TID 0000.0001) PTRACERS_diffKrNr = /* Vertical Diffusivity */
(PID.TID 0000.0001)    23 @  1.000000000000000E-05              /* K =  1: 23 */
(PID.TID 0000.0001)     ;
(PID.TID 0000.0001) PTRACERS_useGMRedi = /* apply GM-Redi */
(PID.TID 0000.0001)                   T
(PID.TID 0000.0001)     ;
(PID.TID 0000.0001) PTRACERS_useDWNSLP = /* apply DOWN-SLOPE Flow */
(PID.TID 0000.0001)                   F
(PID.TID 0000.0001)     ;
(PID.TID 0000.0001) PTRACERS_useKPP = /* apply KPP scheme */
(PID.TID 0000.0001)                   T
(PID.TID 0000.0001)     ;
(PID.TID 0000.0001) PTRACERS_stayPositive = /* use Smolarkiewicz Hack for this tracer */
(PID.TID 0000.0001)                   T
(PID.TID 0000.0001)     ;
(PID.TID 0000.0001) PTRACERS_ref = /* Reference vertical profile */
(PID.TID 0000.0001)    23 @  0.000000000000000E+00              /* K =  1: 23 */
(PID.TID 0000.0001)     ;
(PID.TID 0000.0001) PTRACERS_EvPrRn =/* tracer conc. in Evap. & Rain */
(PID.TID 0000.0001)                 1.234567000000000E+05
(PID.TID 0000.0001)     ;
(PID.TID 0000.0001)  -----------------------------------
(PID.TID 0000.0001)  tracer number :   16
(PID.TID 0000.0001) PTRACERS_names = /* Tracer short name */
(PID.TID 0000.0001)               'POFe'
(PID.TID 0000.0001)     ;
(PID.TID 0000.0001) PTRACERS_long_names = /* Tracer long name */
(PID.TID 0000.0001)               ''
(PID.TID 0000.0001)     ;
(PID.TID 0000.0001) PTRACERS_ioLabel = /* tracer IO Label */
(PID.TID 0000.0001)               '16'
(PID.TID 0000.0001)     ;
(PID.TID 0000.0001) PTRACERS_advScheme = /* Advection Scheme */
(PID.TID 0000.0001)                      33
(PID.TID 0000.0001)     ;
(PID.TID 0000.0001) PTRACERS_SOM_Advection = /* tracer uses SOM advection scheme */
(PID.TID 0000.0001)                   F
(PID.TID 0000.0001)     ;
(PID.TID 0000.0001) PTRACERS_ImplVertAdv = /* implicit vert. advection flag */
(PID.TID 0000.0001)                   F
(PID.TID 0000.0001)     ;
(PID.TID 0000.0001) PTRACERS_MultiDimAdv = /* tracer uses Multi-Dim advection */
(PID.TID 0000.0001)                   T
(PID.TID 0000.0001)     ;
(PID.TID 0000.0001) PTRACERS_AdamsBashGtr = /* apply AB on tracer tendency */
(PID.TID 0000.0001)                   F
(PID.TID 0000.0001)     ;
(PID.TID 0000.0001) PTRACERS_AdamsBash_Tr = /* apply AB on passive tracer */
(PID.TID 0000.0001)                   F
(PID.TID 0000.0001)     ;
(PID.TID 0000.0001) PTRACERS_diffKh = /* Laplacian Diffusivity */
(PID.TID 0000.0001)                 0.000000000000000E+00
(PID.TID 0000.0001)     ;
(PID.TID 0000.0001) PTRACERS_diffK4 = /* Biharmonic Diffusivity */
(PID.TID 0000.0001)                 0.000000000000000E+00
(PID.TID 0000.0001)     ;
(PID.TID 0000.0001) PTRACERS_diffKrNr = /* Vertical Diffusivity */
(PID.TID 0000.0001)    23 @  1.000000000000000E-05              /* K =  1: 23 */
(PID.TID 0000.0001)     ;
(PID.TID 0000.0001) PTRACERS_useGMRedi = /* apply GM-Redi */
(PID.TID 0000.0001)                   T
(PID.TID 0000.0001)     ;
(PID.TID 0000.0001) PTRACERS_useDWNSLP = /* apply DOWN-SLOPE Flow */
(PID.TID 0000.0001)                   F
(PID.TID 0000.0001)     ;
(PID.TID 0000.0001) PTRACERS_useKPP = /* apply KPP scheme */
(PID.TID 0000.0001)                   T
(PID.TID 0000.0001)     ;
(PID.TID 0000.0001) PTRACERS_stayPositive = /* use Smolarkiewicz Hack for this tracer */
(PID.TID 0000.0001)                   T
(PID.TID 0000.0001)     ;
(PID.TID 0000.0001) PTRACERS_ref = /* Reference vertical profile */
(PID.TID 0000.0001)    23 @  0.000000000000000E+00              /* K =  1: 23 */
(PID.TID 0000.0001)     ;
(PID.TID 0000.0001) PTRACERS_EvPrRn =/* tracer conc. in Evap. & Rain */
(PID.TID 0000.0001)                 1.234567000000000E+05
(PID.TID 0000.0001)     ;
(PID.TID 0000.0001)  -----------------------------------
(PID.TID 0000.0001)  tracer number :   17
(PID.TID 0000.0001) PTRACERS_names = /* Tracer short name */
(PID.TID 0000.0001)               'PIC'
(PID.TID 0000.0001)     ;
(PID.TID 0000.0001) PTRACERS_long_names = /* Tracer long name */
(PID.TID 0000.0001)               ''
(PID.TID 0000.0001)     ;
(PID.TID 0000.0001) PTRACERS_ioLabel = /* tracer IO Label */
(PID.TID 0000.0001)               '17'
(PID.TID 0000.0001)     ;
(PID.TID 0000.0001) PTRACERS_advScheme = /* Advection Scheme */
(PID.TID 0000.0001)                      33
(PID.TID 0000.0001)     ;
(PID.TID 0000.0001) PTRACERS_SOM_Advection = /* tracer uses SOM advection scheme */
(PID.TID 0000.0001)                   F
(PID.TID 0000.0001)     ;
(PID.TID 0000.0001) PTRACERS_ImplVertAdv = /* implicit vert. advection flag */
(PID.TID 0000.0001)                   F
(PID.TID 0000.0001)     ;
(PID.TID 0000.0001) PTRACERS_MultiDimAdv = /* tracer uses Multi-Dim advection */
(PID.TID 0000.0001)                   T
(PID.TID 0000.0001)     ;
(PID.TID 0000.0001) PTRACERS_AdamsBashGtr = /* apply AB on tracer tendency */
(PID.TID 0000.0001)                   F
(PID.TID 0000.0001)     ;
(PID.TID 0000.0001) PTRACERS_AdamsBash_Tr = /* apply AB on passive tracer */
(PID.TID 0000.0001)                   F
(PID.TID 0000.0001)     ;
(PID.TID 0000.0001) PTRACERS_diffKh = /* Laplacian Diffusivity */
(PID.TID 0000.0001)                 0.000000000000000E+00
(PID.TID 0000.0001)     ;
(PID.TID 0000.0001) PTRACERS_diffK4 = /* Biharmonic Diffusivity */
(PID.TID 0000.0001)                 0.000000000000000E+00
(PID.TID 0000.0001)     ;
(PID.TID 0000.0001) PTRACERS_diffKrNr = /* Vertical Diffusivity */
(PID.TID 0000.0001)    23 @  1.000000000000000E-05              /* K =  1: 23 */
(PID.TID 0000.0001)     ;
(PID.TID 0000.0001) PTRACERS_useGMRedi = /* apply GM-Redi */
(PID.TID 0000.0001)                   T
(PID.TID 0000.0001)     ;
(PID.TID 0000.0001) PTRACERS_useDWNSLP = /* apply DOWN-SLOPE Flow */
(PID.TID 0000.0001)                   F
(PID.TID 0000.0001)     ;
(PID.TID 0000.0001) PTRACERS_useKPP = /* apply KPP scheme */
(PID.TID 0000.0001)                   T
(PID.TID 0000.0001)     ;
(PID.TID 0000.0001) PTRACERS_stayPositive = /* use Smolarkiewicz Hack for this tracer */
(PID.TID 0000.0001)                   T
(PID.TID 0000.0001)     ;
(PID.TID 0000.0001) PTRACERS_ref = /* Reference vertical profile */
(PID.TID 0000.0001)    23 @  0.000000000000000E+00              /* K =  1: 23 */
(PID.TID 0000.0001)     ;
(PID.TID 0000.0001) PTRACERS_EvPrRn =/* tracer conc. in Evap. & Rain */
(PID.TID 0000.0001)                 1.234567000000000E+05
(PID.TID 0000.0001)     ;
(PID.TID 0000.0001)  -----------------------------------
(PID.TID 0000.0001)  tracer number :   18
(PID.TID 0000.0001) PTRACERS_names = /* Tracer short name */
(PID.TID 0000.0001)               'ALK'
(PID.TID 0000.0001)     ;
(PID.TID 0000.0001) PTRACERS_long_names = /* Tracer long name */
(PID.TID 0000.0001)               ''
(PID.TID 0000.0001)     ;
(PID.TID 0000.0001) PTRACERS_ioLabel = /* tracer IO Label */
(PID.TID 0000.0001)               '18'
(PID.TID 0000.0001)     ;
(PID.TID 0000.0001) PTRACERS_advScheme = /* Advection Scheme */
(PID.TID 0000.0001)                      33
(PID.TID 0000.0001)     ;
(PID.TID 0000.0001) PTRACERS_SOM_Advection = /* tracer uses SOM advection scheme */
(PID.TID 0000.0001)                   F
(PID.TID 0000.0001)     ;
(PID.TID 0000.0001) PTRACERS_ImplVertAdv = /* implicit vert. advection flag */
(PID.TID 0000.0001)                   F
(PID.TID 0000.0001)     ;
(PID.TID 0000.0001) PTRACERS_MultiDimAdv = /* tracer uses Multi-Dim advection */
(PID.TID 0000.0001)                   T
(PID.TID 0000.0001)     ;
(PID.TID 0000.0001) PTRACERS_AdamsBashGtr = /* apply AB on tracer tendency */
(PID.TID 0000.0001)                   F
(PID.TID 0000.0001)     ;
(PID.TID 0000.0001) PTRACERS_AdamsBash_Tr = /* apply AB on passive tracer */
(PID.TID 0000.0001)                   F
(PID.TID 0000.0001)     ;
(PID.TID 0000.0001) PTRACERS_diffKh = /* Laplacian Diffusivity */
(PID.TID 0000.0001)                 0.000000000000000E+00
(PID.TID 0000.0001)     ;
(PID.TID 0000.0001) PTRACERS_diffK4 = /* Biharmonic Diffusivity */
(PID.TID 0000.0001)                 0.000000000000000E+00
(PID.TID 0000.0001)     ;
(PID.TID 0000.0001) PTRACERS_diffKrNr = /* Vertical Diffusivity */
(PID.TID 0000.0001)    23 @  1.000000000000000E-05              /* K =  1: 23 */
(PID.TID 0000.0001)     ;
(PID.TID 0000.0001) PTRACERS_useGMRedi = /* apply GM-Redi */
(PID.TID 0000.0001)                   T
(PID.TID 0000.0001)     ;
(PID.TID 0000.0001) PTRACERS_useDWNSLP = /* apply DOWN-SLOPE Flow */
(PID.TID 0000.0001)                   F
(PID.TID 0000.0001)     ;
(PID.TID 0000.0001) PTRACERS_useKPP = /* apply KPP scheme */
(PID.TID 0000.0001)                   T
(PID.TID 0000.0001)     ;
(PID.TID 0000.0001) PTRACERS_stayPositive = /* use Smolarkiewicz Hack for this tracer */
(PID.TID 0000.0001)                   T
(PID.TID 0000.0001)     ;
(PID.TID 0000.0001) PTRACERS_ref = /* Reference vertical profile */
(PID.TID 0000.0001)    23 @  0.000000000000000E+00              /* K =  1: 23 */
(PID.TID 0000.0001)     ;
(PID.TID 0000.0001) PTRACERS_EvPrRn =/* tracer conc. in Evap. & Rain */
(PID.TID 0000.0001)                 1.234567000000000E+05
(PID.TID 0000.0001)     ;
(PID.TID 0000.0001)  -----------------------------------
(PID.TID 0000.0001)  tracer number :   19
(PID.TID 0000.0001) PTRACERS_names = /* Tracer short name */
(PID.TID 0000.0001)               'O2'
(PID.TID 0000.0001)     ;
(PID.TID 0000.0001) PTRACERS_long_names = /* Tracer long name */
(PID.TID 0000.0001)               ''
(PID.TID 0000.0001)     ;
(PID.TID 0000.0001) PTRACERS_ioLabel = /* tracer IO Label */
(PID.TID 0000.0001)               '19'
(PID.TID 0000.0001)     ;
(PID.TID 0000.0001) PTRACERS_advScheme = /* Advection Scheme */
(PID.TID 0000.0001)                      33
(PID.TID 0000.0001)     ;
(PID.TID 0000.0001) PTRACERS_SOM_Advection = /* tracer uses SOM advection scheme */
(PID.TID 0000.0001)                   F
(PID.TID 0000.0001)     ;
(PID.TID 0000.0001) PTRACERS_ImplVertAdv = /* implicit vert. advection flag */
(PID.TID 0000.0001)                   F
(PID.TID 0000.0001)     ;
(PID.TID 0000.0001) PTRACERS_MultiDimAdv = /* tracer uses Multi-Dim advection */
(PID.TID 0000.0001)                   T
(PID.TID 0000.0001)     ;
(PID.TID 0000.0001) PTRACERS_AdamsBashGtr = /* apply AB on tracer tendency */
(PID.TID 0000.0001)                   F
(PID.TID 0000.0001)     ;
(PID.TID 0000.0001) PTRACERS_AdamsBash_Tr = /* apply AB on passive tracer */
(PID.TID 0000.0001)                   F
(PID.TID 0000.0001)     ;
(PID.TID 0000.0001) PTRACERS_diffKh = /* Laplacian Diffusivity */
(PID.TID 0000.0001)                 0.000000000000000E+00
(PID.TID 0000.0001)     ;
(PID.TID 0000.0001) PTRACERS_diffK4 = /* Biharmonic Diffusivity */
(PID.TID 0000.0001)                 0.000000000000000E+00
(PID.TID 0000.0001)     ;
(PID.TID 0000.0001) PTRACERS_diffKrNr = /* Vertical Diffusivity */
(PID.TID 0000.0001)    23 @  1.000000000000000E-05              /* K =  1: 23 */
(PID.TID 0000.0001)     ;
(PID.TID 0000.0001) PTRACERS_useGMRedi = /* apply GM-Redi */
(PID.TID 0000.0001)                   T
(PID.TID 0000.0001)     ;
(PID.TID 0000.0001) PTRACERS_useDWNSLP = /* apply DOWN-SLOPE Flow */
(PID.TID 0000.0001)                   F
(PID.TID 0000.0001)     ;
(PID.TID 0000.0001) PTRACERS_useKPP = /* apply KPP scheme */
(PID.TID 0000.0001)                   T
(PID.TID 0000.0001)     ;
(PID.TID 0000.0001) PTRACERS_stayPositive = /* use Smolarkiewicz Hack for this tracer */
(PID.TID 0000.0001)                   T
(PID.TID 0000.0001)     ;
(PID.TID 0000.0001) PTRACERS_ref = /* Reference vertical profile */
(PID.TID 0000.0001)    23 @  0.000000000000000E+00              /* K =  1: 23 */
(PID.TID 0000.0001)     ;
(PID.TID 0000.0001) PTRACERS_EvPrRn =/* tracer conc. in Evap. & Rain */
(PID.TID 0000.0001)                 1.234567000000000E+05
(PID.TID 0000.0001)     ;
(PID.TID 0000.0001)  -----------------------------------
(PID.TID 0000.0001)  tracer number :   20
(PID.TID 0000.0001) PTRACERS_names = /* Tracer short name */
(PID.TID 0000.0001)               'CDOM01'
(PID.TID 0000.0001)     ;
(PID.TID 0000.0001) PTRACERS_long_names = /* Tracer long name */
(PID.TID 0000.0001)               ''
(PID.TID 0000.0001)     ;
(PID.TID 0000.0001) PTRACERS_ioLabel = /* tracer IO Label */
(PID.TID 0000.0001)               '20'
(PID.TID 0000.0001)     ;
(PID.TID 0000.0001) PTRACERS_advScheme = /* Advection Scheme */
(PID.TID 0000.0001)                      33
(PID.TID 0000.0001)     ;
(PID.TID 0000.0001) PTRACERS_SOM_Advection = /* tracer uses SOM advection scheme */
(PID.TID 0000.0001)                   F
(PID.TID 0000.0001)     ;
(PID.TID 0000.0001) PTRACERS_ImplVertAdv = /* implicit vert. advection flag */
(PID.TID 0000.0001)                   F
(PID.TID 0000.0001)     ;
(PID.TID 0000.0001) PTRACERS_MultiDimAdv = /* tracer uses Multi-Dim advection */
(PID.TID 0000.0001)                   T
(PID.TID 0000.0001)     ;
(PID.TID 0000.0001) PTRACERS_AdamsBashGtr = /* apply AB on tracer tendency */
(PID.TID 0000.0001)                   F
(PID.TID 0000.0001)     ;
(PID.TID 0000.0001) PTRACERS_AdamsBash_Tr = /* apply AB on passive tracer */
(PID.TID 0000.0001)                   F
(PID.TID 0000.0001)     ;
(PID.TID 0000.0001) PTRACERS_diffKh = /* Laplacian Diffusivity */
(PID.TID 0000.0001)                 0.000000000000000E+00
(PID.TID 0000.0001)     ;
(PID.TID 0000.0001) PTRACERS_diffK4 = /* Biharmonic Diffusivity */
(PID.TID 0000.0001)                 0.000000000000000E+00
(PID.TID 0000.0001)     ;
(PID.TID 0000.0001) PTRACERS_diffKrNr = /* Vertical Diffusivity */
(PID.TID 0000.0001)    23 @  1.000000000000000E-05              /* K =  1: 23 */
(PID.TID 0000.0001)     ;
(PID.TID 0000.0001) PTRACERS_useGMRedi = /* apply GM-Redi */
(PID.TID 0000.0001)                   T
(PID.TID 0000.0001)     ;
(PID.TID 0000.0001) PTRACERS_useDWNSLP = /* apply DOWN-SLOPE Flow */
(PID.TID 0000.0001)                   F
(PID.TID 0000.0001)     ;
(PID.TID 0000.0001) PTRACERS_useKPP = /* apply KPP scheme */
(PID.TID 0000.0001)                   T
(PID.TID 0000.0001)     ;
(PID.TID 0000.0001) PTRACERS_stayPositive = /* use Smolarkiewicz Hack for this tracer */
(PID.TID 0000.0001)                   T
(PID.TID 0000.0001)     ;
(PID.TID 0000.0001) PTRACERS_ref = /* Reference vertical profile */
(PID.TID 0000.0001)    23 @  0.000000000000000E+00              /* K =  1: 23 */
(PID.TID 0000.0001)     ;
(PID.TID 0000.0001) PTRACERS_EvPrRn =/* tracer conc. in Evap. & Rain */
(PID.TID 0000.0001)                 1.234567000000000E+05
(PID.TID 0000.0001)     ;
(PID.TID 0000.0001)  -----------------------------------
(PID.TID 0000.0001)  tracer number :   21
(PID.TID 0000.0001) PTRACERS_names = /* Tracer short name */
(PID.TID 0000.0001)               'c01'
(PID.TID 0000.0001)     ;
(PID.TID 0000.0001) PTRACERS_long_names = /* Tracer long name */
(PID.TID 0000.0001)               ''
(PID.TID 0000.0001)     ;
(PID.TID 0000.0001) PTRACERS_ioLabel = /* tracer IO Label */
(PID.TID 0000.0001)               '21'
(PID.TID 0000.0001)     ;
(PID.TID 0000.0001) PTRACERS_advScheme = /* Advection Scheme */
(PID.TID 0000.0001)                      33
(PID.TID 0000.0001)     ;
(PID.TID 0000.0001) PTRACERS_SOM_Advection = /* tracer uses SOM advection scheme */
(PID.TID 0000.0001)                   F
(PID.TID 0000.0001)     ;
(PID.TID 0000.0001) PTRACERS_ImplVertAdv = /* implicit vert. advection flag */
(PID.TID 0000.0001)                   F
(PID.TID 0000.0001)     ;
(PID.TID 0000.0001) PTRACERS_MultiDimAdv = /* tracer uses Multi-Dim advection */
(PID.TID 0000.0001)                   T
(PID.TID 0000.0001)     ;
(PID.TID 0000.0001) PTRACERS_AdamsBashGtr = /* apply AB on tracer tendency */
(PID.TID 0000.0001)                   F
(PID.TID 0000.0001)     ;
(PID.TID 0000.0001) PTRACERS_AdamsBash_Tr = /* apply AB on passive tracer */
(PID.TID 0000.0001)                   F
(PID.TID 0000.0001)     ;
(PID.TID 0000.0001) PTRACERS_diffKh = /* Laplacian Diffusivity */
(PID.TID 0000.0001)                 0.000000000000000E+00
(PID.TID 0000.0001)     ;
(PID.TID 0000.0001) PTRACERS_diffK4 = /* Biharmonic Diffusivity */
(PID.TID 0000.0001)                 0.000000000000000E+00
(PID.TID 0000.0001)     ;
(PID.TID 0000.0001) PTRACERS_diffKrNr = /* Vertical Diffusivity */
(PID.TID 0000.0001)    23 @  1.000000000000000E-05              /* K =  1: 23 */
(PID.TID 0000.0001)     ;
(PID.TID 0000.0001) PTRACERS_useGMRedi = /* apply GM-Redi */
(PID.TID 0000.0001)                   T
(PID.TID 0000.0001)     ;
(PID.TID 0000.0001) PTRACERS_useDWNSLP = /* apply DOWN-SLOPE Flow */
(PID.TID 0000.0001)                   F
(PID.TID 0000.0001)     ;
(PID.TID 0000.0001) PTRACERS_useKPP = /* apply KPP scheme */
(PID.TID 0000.0001)                   T
(PID.TID 0000.0001)     ;
(PID.TID 0000.0001) PTRACERS_stayPositive = /* use Smolarkiewicz Hack for this tracer */
(PID.TID 0000.0001)                   T
(PID.TID 0000.0001)     ;
(PID.TID 0000.0001) PTRACERS_ref = /* Reference vertical profile */
(PID.TID 0000.0001)    23 @  0.000000000000000E+00              /* K =  1: 23 */
(PID.TID 0000.0001)     ;
(PID.TID 0000.0001) PTRACERS_EvPrRn =/* tracer conc. in Evap. & Rain */
(PID.TID 0000.0001)                 1.234567000000000E+05
(PID.TID 0000.0001)     ;
(PID.TID 0000.0001)  -----------------------------------
(PID.TID 0000.0001)  tracer number :   22
(PID.TID 0000.0001) PTRACERS_names = /* Tracer short name */
(PID.TID 0000.0001)               'c02'
(PID.TID 0000.0001)     ;
(PID.TID 0000.0001) PTRACERS_long_names = /* Tracer long name */
(PID.TID 0000.0001)               ''
(PID.TID 0000.0001)     ;
(PID.TID 0000.0001) PTRACERS_ioLabel = /* tracer IO Label */
(PID.TID 0000.0001)               '22'
(PID.TID 0000.0001)     ;
(PID.TID 0000.0001) PTRACERS_advScheme = /* Advection Scheme */
(PID.TID 0000.0001)                      33
(PID.TID 0000.0001)     ;
(PID.TID 0000.0001) PTRACERS_SOM_Advection = /* tracer uses SOM advection scheme */
(PID.TID 0000.0001)                   F
(PID.TID 0000.0001)     ;
(PID.TID 0000.0001) PTRACERS_ImplVertAdv = /* implicit vert. advection flag */
(PID.TID 0000.0001)                   F
(PID.TID 0000.0001)     ;
(PID.TID 0000.0001) PTRACERS_MultiDimAdv = /* tracer uses Multi-Dim advection */
(PID.TID 0000.0001)                   T
(PID.TID 0000.0001)     ;
(PID.TID 0000.0001) PTRACERS_AdamsBashGtr = /* apply AB on tracer tendency */
(PID.TID 0000.0001)                   F
(PID.TID 0000.0001)     ;
(PID.TID 0000.0001) PTRACERS_AdamsBash_Tr = /* apply AB on passive tracer */
(PID.TID 0000.0001)                   F
(PID.TID 0000.0001)     ;
(PID.TID 0000.0001) PTRACERS_diffKh = /* Laplacian Diffusivity */
(PID.TID 0000.0001)                 0.000000000000000E+00
(PID.TID 0000.0001)     ;
(PID.TID 0000.0001) PTRACERS_diffK4 = /* Biharmonic Diffusivity */
(PID.TID 0000.0001)                 0.000000000000000E+00
(PID.TID 0000.0001)     ;
(PID.TID 0000.0001) PTRACERS_diffKrNr = /* Vertical Diffusivity */
(PID.TID 0000.0001)    23 @  1.000000000000000E-05              /* K =  1: 23 */
(PID.TID 0000.0001)     ;
(PID.TID 0000.0001) PTRACERS_useGMRedi = /* apply GM-Redi */
(PID.TID 0000.0001)                   T
(PID.TID 0000.0001)     ;
(PID.TID 0000.0001) PTRACERS_useDWNSLP = /* apply DOWN-SLOPE Flow */
(PID.TID 0000.0001)                   F
(PID.TID 0000.0001)     ;
(PID.TID 0000.0001) PTRACERS_useKPP = /* apply KPP scheme */
(PID.TID 0000.0001)                   T
(PID.TID 0000.0001)     ;
(PID.TID 0000.0001) PTRACERS_stayPositive = /* use Smolarkiewicz Hack for this tracer */
(PID.TID 0000.0001)                   T
(PID.TID 0000.0001)     ;
(PID.TID 0000.0001) PTRACERS_ref = /* Reference vertical profile */
(PID.TID 0000.0001)    23 @  0.000000000000000E+00              /* K =  1: 23 */
(PID.TID 0000.0001)     ;
(PID.TID 0000.0001) PTRACERS_EvPrRn =/* tracer conc. in Evap. & Rain */
(PID.TID 0000.0001)                 1.234567000000000E+05
(PID.TID 0000.0001)     ;
(PID.TID 0000.0001)  -----------------------------------
(PID.TID 0000.0001)  tracer number :   23
(PID.TID 0000.0001) PTRACERS_names = /* Tracer short name */
(PID.TID 0000.0001)               'c03'
(PID.TID 0000.0001)     ;
(PID.TID 0000.0001) PTRACERS_long_names = /* Tracer long name */
(PID.TID 0000.0001)               ''
(PID.TID 0000.0001)     ;
(PID.TID 0000.0001) PTRACERS_ioLabel = /* tracer IO Label */
(PID.TID 0000.0001)               '23'
(PID.TID 0000.0001)     ;
(PID.TID 0000.0001) PTRACERS_advScheme = /* Advection Scheme */
(PID.TID 0000.0001)                      33
(PID.TID 0000.0001)     ;
(PID.TID 0000.0001) PTRACERS_SOM_Advection = /* tracer uses SOM advection scheme */
(PID.TID 0000.0001)                   F
(PID.TID 0000.0001)     ;
(PID.TID 0000.0001) PTRACERS_ImplVertAdv = /* implicit vert. advection flag */
(PID.TID 0000.0001)                   F
(PID.TID 0000.0001)     ;
(PID.TID 0000.0001) PTRACERS_MultiDimAdv = /* tracer uses Multi-Dim advection */
(PID.TID 0000.0001)                   T
(PID.TID 0000.0001)     ;
(PID.TID 0000.0001) PTRACERS_AdamsBashGtr = /* apply AB on tracer tendency */
(PID.TID 0000.0001)                   F
(PID.TID 0000.0001)     ;
(PID.TID 0000.0001) PTRACERS_AdamsBash_Tr = /* apply AB on passive tracer */
(PID.TID 0000.0001)                   F
(PID.TID 0000.0001)     ;
(PID.TID 0000.0001) PTRACERS_diffKh = /* Laplacian Diffusivity */
(PID.TID 0000.0001)                 0.000000000000000E+00
(PID.TID 0000.0001)     ;
(PID.TID 0000.0001) PTRACERS_diffK4 = /* Biharmonic Diffusivity */
(PID.TID 0000.0001)                 0.000000000000000E+00
(PID.TID 0000.0001)     ;
(PID.TID 0000.0001) PTRACERS_diffKrNr = /* Vertical Diffusivity */
(PID.TID 0000.0001)    23 @  1.000000000000000E-05              /* K =  1: 23 */
(PID.TID 0000.0001)     ;
(PID.TID 0000.0001) PTRACERS_useGMRedi = /* apply GM-Redi */
(PID.TID 0000.0001)                   T
(PID.TID 0000.0001)     ;
(PID.TID 0000.0001) PTRACERS_useDWNSLP = /* apply DOWN-SLOPE Flow */
(PID.TID 0000.0001)                   F
(PID.TID 0000.0001)     ;
(PID.TID 0000.0001) PTRACERS_useKPP = /* apply KPP scheme */
(PID.TID 0000.0001)                   T
(PID.TID 0000.0001)     ;
(PID.TID 0000.0001) PTRACERS_stayPositive = /* use Smolarkiewicz Hack for this tracer */
(PID.TID 0000.0001)                   T
(PID.TID 0000.0001)     ;
(PID.TID 0000.0001) PTRACERS_ref = /* Reference vertical profile */
(PID.TID 0000.0001)    23 @  0.000000000000000E+00              /* K =  1: 23 */
(PID.TID 0000.0001)     ;
(PID.TID 0000.0001) PTRACERS_EvPrRn =/* tracer conc. in Evap. & Rain */
(PID.TID 0000.0001)                 1.234567000000000E+05
(PID.TID 0000.0001)     ;
(PID.TID 0000.0001)  -----------------------------------
(PID.TID 0000.0001)  tracer number :   24
(PID.TID 0000.0001) PTRACERS_names = /* Tracer short name */
(PID.TID 0000.0001)               'c04'
(PID.TID 0000.0001)     ;
(PID.TID 0000.0001) PTRACERS_long_names = /* Tracer long name */
(PID.TID 0000.0001)               ''
(PID.TID 0000.0001)     ;
(PID.TID 0000.0001) PTRACERS_ioLabel = /* tracer IO Label */
(PID.TID 0000.0001)               '24'
(PID.TID 0000.0001)     ;
(PID.TID 0000.0001) PTRACERS_advScheme = /* Advection Scheme */
(PID.TID 0000.0001)                      33
(PID.TID 0000.0001)     ;
(PID.TID 0000.0001) PTRACERS_SOM_Advection = /* tracer uses SOM advection scheme */
(PID.TID 0000.0001)                   F
(PID.TID 0000.0001)     ;
(PID.TID 0000.0001) PTRACERS_ImplVertAdv = /* implicit vert. advection flag */
(PID.TID 0000.0001)                   F
(PID.TID 0000.0001)     ;
(PID.TID 0000.0001) PTRACERS_MultiDimAdv = /* tracer uses Multi-Dim advection */
(PID.TID 0000.0001)                   T
(PID.TID 0000.0001)     ;
(PID.TID 0000.0001) PTRACERS_AdamsBashGtr = /* apply AB on tracer tendency */
(PID.TID 0000.0001)                   F
(PID.TID 0000.0001)     ;
(PID.TID 0000.0001) PTRACERS_AdamsBash_Tr = /* apply AB on passive tracer */
(PID.TID 0000.0001)                   F
(PID.TID 0000.0001)     ;
(PID.TID 0000.0001) PTRACERS_diffKh = /* Laplacian Diffusivity */
(PID.TID 0000.0001)                 0.000000000000000E+00
(PID.TID 0000.0001)     ;
(PID.TID 0000.0001) PTRACERS_diffK4 = /* Biharmonic Diffusivity */
(PID.TID 0000.0001)                 0.000000000000000E+00
(PID.TID 0000.0001)     ;
(PID.TID 0000.0001) PTRACERS_diffKrNr = /* Vertical Diffusivity */
(PID.TID 0000.0001)    23 @  1.000000000000000E-05              /* K =  1: 23 */
(PID.TID 0000.0001)     ;
(PID.TID 0000.0001) PTRACERS_useGMRedi = /* apply GM-Redi */
(PID.TID 0000.0001)                   T
(PID.TID 0000.0001)     ;
(PID.TID 0000.0001) PTRACERS_useDWNSLP = /* apply DOWN-SLOPE Flow */
(PID.TID 0000.0001)                   F
(PID.TID 0000.0001)     ;
(PID.TID 0000.0001) PTRACERS_useKPP = /* apply KPP scheme */
(PID.TID 0000.0001)                   T
(PID.TID 0000.0001)     ;
(PID.TID 0000.0001) PTRACERS_stayPositive = /* use Smolarkiewicz Hack for this tracer */
(PID.TID 0000.0001)                   T
(PID.TID 0000.0001)     ;
(PID.TID 0000.0001) PTRACERS_ref = /* Reference vertical profile */
(PID.TID 0000.0001)    23 @  0.000000000000000E+00              /* K =  1: 23 */
(PID.TID 0000.0001)     ;
(PID.TID 0000.0001) PTRACERS_EvPrRn =/* tracer conc. in Evap. & Rain */
(PID.TID 0000.0001)                 1.234567000000000E+05
(PID.TID 0000.0001)     ;
(PID.TID 0000.0001)  -----------------------------------
(PID.TID 0000.0001)  tracer number :   25
(PID.TID 0000.0001) PTRACERS_names = /* Tracer short name */
(PID.TID 0000.0001)               'n01'
(PID.TID 0000.0001)     ;
(PID.TID 0000.0001) PTRACERS_long_names = /* Tracer long name */
(PID.TID 0000.0001)               ''
(PID.TID 0000.0001)     ;
(PID.TID 0000.0001) PTRACERS_ioLabel = /* tracer IO Label */
(PID.TID 0000.0001)               '25'
(PID.TID 0000.0001)     ;
(PID.TID 0000.0001) PTRACERS_advScheme = /* Advection Scheme */
(PID.TID 0000.0001)                      33
(PID.TID 0000.0001)     ;
(PID.TID 0000.0001) PTRACERS_SOM_Advection = /* tracer uses SOM advection scheme */
(PID.TID 0000.0001)                   F
(PID.TID 0000.0001)     ;
(PID.TID 0000.0001) PTRACERS_ImplVertAdv = /* implicit vert. advection flag */
(PID.TID 0000.0001)                   F
(PID.TID 0000.0001)     ;
(PID.TID 0000.0001) PTRACERS_MultiDimAdv = /* tracer uses Multi-Dim advection */
(PID.TID 0000.0001)                   T
(PID.TID 0000.0001)     ;
(PID.TID 0000.0001) PTRACERS_AdamsBashGtr = /* apply AB on tracer tendency */
(PID.TID 0000.0001)                   F
(PID.TID 0000.0001)     ;
(PID.TID 0000.0001) PTRACERS_AdamsBash_Tr = /* apply AB on passive tracer */
(PID.TID 0000.0001)                   F
(PID.TID 0000.0001)     ;
(PID.TID 0000.0001) PTRACERS_diffKh = /* Laplacian Diffusivity */
(PID.TID 0000.0001)                 0.000000000000000E+00
(PID.TID 0000.0001)     ;
(PID.TID 0000.0001) PTRACERS_diffK4 = /* Biharmonic Diffusivity */
(PID.TID 0000.0001)                 0.000000000000000E+00
(PID.TID 0000.0001)     ;
(PID.TID 0000.0001) PTRACERS_diffKrNr = /* Vertical Diffusivity */
(PID.TID 0000.0001)    23 @  1.000000000000000E-05              /* K =  1: 23 */
(PID.TID 0000.0001)     ;
(PID.TID 0000.0001) PTRACERS_useGMRedi = /* apply GM-Redi */
(PID.TID 0000.0001)                   T
(PID.TID 0000.0001)     ;
(PID.TID 0000.0001) PTRACERS_useDWNSLP = /* apply DOWN-SLOPE Flow */
(PID.TID 0000.0001)                   F
(PID.TID 0000.0001)     ;
(PID.TID 0000.0001) PTRACERS_useKPP = /* apply KPP scheme */
(PID.TID 0000.0001)                   T
(PID.TID 0000.0001)     ;
(PID.TID 0000.0001) PTRACERS_stayPositive = /* use Smolarkiewicz Hack for this tracer */
(PID.TID 0000.0001)                   T
(PID.TID 0000.0001)     ;
(PID.TID 0000.0001) PTRACERS_ref = /* Reference vertical profile */
(PID.TID 0000.0001)    23 @  0.000000000000000E+00              /* K =  1: 23 */
(PID.TID 0000.0001)     ;
(PID.TID 0000.0001) PTRACERS_EvPrRn =/* tracer conc. in Evap. & Rain */
(PID.TID 0000.0001)                 1.234567000000000E+05
(PID.TID 0000.0001)     ;
(PID.TID 0000.0001)  -----------------------------------
(PID.TID 0000.0001)  tracer number :   26
(PID.TID 0000.0001) PTRACERS_names = /* Tracer short name */
(PID.TID 0000.0001)               'n02'
(PID.TID 0000.0001)     ;
(PID.TID 0000.0001) PTRACERS_long_names = /* Tracer long name */
(PID.TID 0000.0001)               ''
(PID.TID 0000.0001)     ;
(PID.TID 0000.0001) PTRACERS_ioLabel = /* tracer IO Label */
(PID.TID 0000.0001)               '26'
(PID.TID 0000.0001)     ;
(PID.TID 0000.0001) PTRACERS_advScheme = /* Advection Scheme */
(PID.TID 0000.0001)                      33
(PID.TID 0000.0001)     ;
(PID.TID 0000.0001) PTRACERS_SOM_Advection = /* tracer uses SOM advection scheme */
(PID.TID 0000.0001)                   F
(PID.TID 0000.0001)     ;
(PID.TID 0000.0001) PTRACERS_ImplVertAdv = /* implicit vert. advection flag */
(PID.TID 0000.0001)                   F
(PID.TID 0000.0001)     ;
(PID.TID 0000.0001) PTRACERS_MultiDimAdv = /* tracer uses Multi-Dim advection */
(PID.TID 0000.0001)                   T
(PID.TID 0000.0001)     ;
(PID.TID 0000.0001) PTRACERS_AdamsBashGtr = /* apply AB on tracer tendency */
(PID.TID 0000.0001)                   F
(PID.TID 0000.0001)     ;
(PID.TID 0000.0001) PTRACERS_AdamsBash_Tr = /* apply AB on passive tracer */
(PID.TID 0000.0001)                   F
(PID.TID 0000.0001)     ;
(PID.TID 0000.0001) PTRACERS_diffKh = /* Laplacian Diffusivity */
(PID.TID 0000.0001)                 0.000000000000000E+00
(PID.TID 0000.0001)     ;
(PID.TID 0000.0001) PTRACERS_diffK4 = /* Biharmonic Diffusivity */
(PID.TID 0000.0001)                 0.000000000000000E+00
(PID.TID 0000.0001)     ;
(PID.TID 0000.0001) PTRACERS_diffKrNr = /* Vertical Diffusivity */
(PID.TID 0000.0001)    23 @  1.000000000000000E-05              /* K =  1: 23 */
(PID.TID 0000.0001)     ;
(PID.TID 0000.0001) PTRACERS_useGMRedi = /* apply GM-Redi */
(PID.TID 0000.0001)                   T
(PID.TID 0000.0001)     ;
(PID.TID 0000.0001) PTRACERS_useDWNSLP = /* apply DOWN-SLOPE Flow */
(PID.TID 0000.0001)                   F
(PID.TID 0000.0001)     ;
(PID.TID 0000.0001) PTRACERS_useKPP = /* apply KPP scheme */
(PID.TID 0000.0001)                   T
(PID.TID 0000.0001)     ;
(PID.TID 0000.0001) PTRACERS_stayPositive = /* use Smolarkiewicz Hack for this tracer */
(PID.TID 0000.0001)                   T
(PID.TID 0000.0001)     ;
(PID.TID 0000.0001) PTRACERS_ref = /* Reference vertical profile */
(PID.TID 0000.0001)    23 @  0.000000000000000E+00              /* K =  1: 23 */
(PID.TID 0000.0001)     ;
(PID.TID 0000.0001) PTRACERS_EvPrRn =/* tracer conc. in Evap. & Rain */
(PID.TID 0000.0001)                 1.234567000000000E+05
(PID.TID 0000.0001)     ;
(PID.TID 0000.0001)  -----------------------------------
(PID.TID 0000.0001)  tracer number :   27
(PID.TID 0000.0001) PTRACERS_names = /* Tracer short name */
(PID.TID 0000.0001)               'n03'
(PID.TID 0000.0001)     ;
(PID.TID 0000.0001) PTRACERS_long_names = /* Tracer long name */
(PID.TID 0000.0001)               ''
(PID.TID 0000.0001)     ;
(PID.TID 0000.0001) PTRACERS_ioLabel = /* tracer IO Label */
(PID.TID 0000.0001)               '27'
(PID.TID 0000.0001)     ;
(PID.TID 0000.0001) PTRACERS_advScheme = /* Advection Scheme */
(PID.TID 0000.0001)                      33
(PID.TID 0000.0001)     ;
(PID.TID 0000.0001) PTRACERS_SOM_Advection = /* tracer uses SOM advection scheme */
(PID.TID 0000.0001)                   F
(PID.TID 0000.0001)     ;
(PID.TID 0000.0001) PTRACERS_ImplVertAdv = /* implicit vert. advection flag */
(PID.TID 0000.0001)                   F
(PID.TID 0000.0001)     ;
(PID.TID 0000.0001) PTRACERS_MultiDimAdv = /* tracer uses Multi-Dim advection */
(PID.TID 0000.0001)                   T
(PID.TID 0000.0001)     ;
(PID.TID 0000.0001) PTRACERS_AdamsBashGtr = /* apply AB on tracer tendency */
(PID.TID 0000.0001)                   F
(PID.TID 0000.0001)     ;
(PID.TID 0000.0001) PTRACERS_AdamsBash_Tr = /* apply AB on passive tracer */
(PID.TID 0000.0001)                   F
(PID.TID 0000.0001)     ;
(PID.TID 0000.0001) PTRACERS_diffKh = /* Laplacian Diffusivity */
(PID.TID 0000.0001)                 0.000000000000000E+00
(PID.TID 0000.0001)     ;
(PID.TID 0000.0001) PTRACERS_diffK4 = /* Biharmonic Diffusivity */
(PID.TID 0000.0001)                 0.000000000000000E+00
(PID.TID 0000.0001)     ;
(PID.TID 0000.0001) PTRACERS_diffKrNr = /* Vertical Diffusivity */
(PID.TID 0000.0001)    23 @  1.000000000000000E-05              /* K =  1: 23 */
(PID.TID 0000.0001)     ;
(PID.TID 0000.0001) PTRACERS_useGMRedi = /* apply GM-Redi */
(PID.TID 0000.0001)                   T
(PID.TID 0000.0001)     ;
(PID.TID 0000.0001) PTRACERS_useDWNSLP = /* apply DOWN-SLOPE Flow */
(PID.TID 0000.0001)                   F
(PID.TID 0000.0001)     ;
(PID.TID 0000.0001) PTRACERS_useKPP = /* apply KPP scheme */
(PID.TID 0000.0001)                   T
(PID.TID 0000.0001)     ;
(PID.TID 0000.0001) PTRACERS_stayPositive = /* use Smolarkiewicz Hack for this tracer */
(PID.TID 0000.0001)                   T
(PID.TID 0000.0001)     ;
(PID.TID 0000.0001) PTRACERS_ref = /* Reference vertical profile */
(PID.TID 0000.0001)    23 @  0.000000000000000E+00              /* K =  1: 23 */
(PID.TID 0000.0001)     ;
(PID.TID 0000.0001) PTRACERS_EvPrRn =/* tracer conc. in Evap. & Rain */
(PID.TID 0000.0001)                 1.234567000000000E+05
(PID.TID 0000.0001)     ;
(PID.TID 0000.0001)  -----------------------------------
(PID.TID 0000.0001)  tracer number :   28
(PID.TID 0000.0001) PTRACERS_names = /* Tracer short name */
(PID.TID 0000.0001)               'n04'
(PID.TID 0000.0001)     ;
(PID.TID 0000.0001) PTRACERS_long_names = /* Tracer long name */
(PID.TID 0000.0001)               ''
(PID.TID 0000.0001)     ;
(PID.TID 0000.0001) PTRACERS_ioLabel = /* tracer IO Label */
(PID.TID 0000.0001)               '28'
(PID.TID 0000.0001)     ;
(PID.TID 0000.0001) PTRACERS_advScheme = /* Advection Scheme */
(PID.TID 0000.0001)                      33
(PID.TID 0000.0001)     ;
(PID.TID 0000.0001) PTRACERS_SOM_Advection = /* tracer uses SOM advection scheme */
(PID.TID 0000.0001)                   F
(PID.TID 0000.0001)     ;
(PID.TID 0000.0001) PTRACERS_ImplVertAdv = /* implicit vert. advection flag */
(PID.TID 0000.0001)                   F
(PID.TID 0000.0001)     ;
(PID.TID 0000.0001) PTRACERS_MultiDimAdv = /* tracer uses Multi-Dim advection */
(PID.TID 0000.0001)                   T
(PID.TID 0000.0001)     ;
(PID.TID 0000.0001) PTRACERS_AdamsBashGtr = /* apply AB on tracer tendency */
(PID.TID 0000.0001)                   F
(PID.TID 0000.0001)     ;
(PID.TID 0000.0001) PTRACERS_AdamsBash_Tr = /* apply AB on passive tracer */
(PID.TID 0000.0001)                   F
(PID.TID 0000.0001)     ;
(PID.TID 0000.0001) PTRACERS_diffKh = /* Laplacian Diffusivity */
(PID.TID 0000.0001)                 0.000000000000000E+00
(PID.TID 0000.0001)     ;
(PID.TID 0000.0001) PTRACERS_diffK4 = /* Biharmonic Diffusivity */
(PID.TID 0000.0001)                 0.000000000000000E+00
(PID.TID 0000.0001)     ;
(PID.TID 0000.0001) PTRACERS_diffKrNr = /* Vertical Diffusivity */
(PID.TID 0000.0001)    23 @  1.000000000000000E-05              /* K =  1: 23 */
(PID.TID 0000.0001)     ;
(PID.TID 0000.0001) PTRACERS_useGMRedi = /* apply GM-Redi */
(PID.TID 0000.0001)                   T
(PID.TID 0000.0001)     ;
(PID.TID 0000.0001) PTRACERS_useDWNSLP = /* apply DOWN-SLOPE Flow */
(PID.TID 0000.0001)                   F
(PID.TID 0000.0001)     ;
(PID.TID 0000.0001) PTRACERS_useKPP = /* apply KPP scheme */
(PID.TID 0000.0001)                   T
(PID.TID 0000.0001)     ;
(PID.TID 0000.0001) PTRACERS_stayPositive = /* use Smolarkiewicz Hack for this tracer */
(PID.TID 0000.0001)                   T
(PID.TID 0000.0001)     ;
(PID.TID 0000.0001) PTRACERS_ref = /* Reference vertical profile */
(PID.TID 0000.0001)    23 @  0.000000000000000E+00              /* K =  1: 23 */
(PID.TID 0000.0001)     ;
(PID.TID 0000.0001) PTRACERS_EvPrRn =/* tracer conc. in Evap. & Rain */
(PID.TID 0000.0001)                 1.234567000000000E+05
(PID.TID 0000.0001)     ;
(PID.TID 0000.0001)  -----------------------------------
(PID.TID 0000.0001)  tracer number :   29
(PID.TID 0000.0001) PTRACERS_names = /* Tracer short name */
(PID.TID 0000.0001)               'p01'
(PID.TID 0000.0001)     ;
(PID.TID 0000.0001) PTRACERS_long_names = /* Tracer long name */
(PID.TID 0000.0001)               ''
(PID.TID 0000.0001)     ;
(PID.TID 0000.0001) PTRACERS_ioLabel = /* tracer IO Label */
(PID.TID 0000.0001)               '29'
(PID.TID 0000.0001)     ;
(PID.TID 0000.0001) PTRACERS_advScheme = /* Advection Scheme */
(PID.TID 0000.0001)                      33
(PID.TID 0000.0001)     ;
(PID.TID 0000.0001) PTRACERS_SOM_Advection = /* tracer uses SOM advection scheme */
(PID.TID 0000.0001)                   F
(PID.TID 0000.0001)     ;
(PID.TID 0000.0001) PTRACERS_ImplVertAdv = /* implicit vert. advection flag */
(PID.TID 0000.0001)                   F
(PID.TID 0000.0001)     ;
(PID.TID 0000.0001) PTRACERS_MultiDimAdv = /* tracer uses Multi-Dim advection */
(PID.TID 0000.0001)                   T
(PID.TID 0000.0001)     ;
(PID.TID 0000.0001) PTRACERS_AdamsBashGtr = /* apply AB on tracer tendency */
(PID.TID 0000.0001)                   F
(PID.TID 0000.0001)     ;
(PID.TID 0000.0001) PTRACERS_AdamsBash_Tr = /* apply AB on passive tracer */
(PID.TID 0000.0001)                   F
(PID.TID 0000.0001)     ;
(PID.TID 0000.0001) PTRACERS_diffKh = /* Laplacian Diffusivity */
(PID.TID 0000.0001)                 0.000000000000000E+00
(PID.TID 0000.0001)     ;
(PID.TID 0000.0001) PTRACERS_diffK4 = /* Biharmonic Diffusivity */
(PID.TID 0000.0001)                 0.000000000000000E+00
(PID.TID 0000.0001)     ;
(PID.TID 0000.0001) PTRACERS_diffKrNr = /* Vertical Diffusivity */
(PID.TID 0000.0001)    23 @  1.000000000000000E-05              /* K =  1: 23 */
(PID.TID 0000.0001)     ;
(PID.TID 0000.0001) PTRACERS_useGMRedi = /* apply GM-Redi */
(PID.TID 0000.0001)                   T
(PID.TID 0000.0001)     ;
(PID.TID 0000.0001) PTRACERS_useDWNSLP = /* apply DOWN-SLOPE Flow */
(PID.TID 0000.0001)                   F
(PID.TID 0000.0001)     ;
(PID.TID 0000.0001) PTRACERS_useKPP = /* apply KPP scheme */
(PID.TID 0000.0001)                   T
(PID.TID 0000.0001)     ;
(PID.TID 0000.0001) PTRACERS_stayPositive = /* use Smolarkiewicz Hack for this tracer */
(PID.TID 0000.0001)                   T
(PID.TID 0000.0001)     ;
(PID.TID 0000.0001) PTRACERS_ref = /* Reference vertical profile */
(PID.TID 0000.0001)    23 @  0.000000000000000E+00              /* K =  1: 23 */
(PID.TID 0000.0001)     ;
(PID.TID 0000.0001) PTRACERS_EvPrRn =/* tracer conc. in Evap. & Rain */
(PID.TID 0000.0001)                 1.234567000000000E+05
(PID.TID 0000.0001)     ;
(PID.TID 0000.0001)  -----------------------------------
(PID.TID 0000.0001)  tracer number :   30
(PID.TID 0000.0001) PTRACERS_names = /* Tracer short name */
(PID.TID 0000.0001)               'p02'
(PID.TID 0000.0001)     ;
(PID.TID 0000.0001) PTRACERS_long_names = /* Tracer long name */
(PID.TID 0000.0001)               ''
(PID.TID 0000.0001)     ;
(PID.TID 0000.0001) PTRACERS_ioLabel = /* tracer IO Label */
(PID.TID 0000.0001)               '30'
(PID.TID 0000.0001)     ;
(PID.TID 0000.0001) PTRACERS_advScheme = /* Advection Scheme */
(PID.TID 0000.0001)                      33
(PID.TID 0000.0001)     ;
(PID.TID 0000.0001) PTRACERS_SOM_Advection = /* tracer uses SOM advection scheme */
(PID.TID 0000.0001)                   F
(PID.TID 0000.0001)     ;
(PID.TID 0000.0001) PTRACERS_ImplVertAdv = /* implicit vert. advection flag */
(PID.TID 0000.0001)                   F
(PID.TID 0000.0001)     ;
(PID.TID 0000.0001) PTRACERS_MultiDimAdv = /* tracer uses Multi-Dim advection */
(PID.TID 0000.0001)                   T
(PID.TID 0000.0001)     ;
(PID.TID 0000.0001) PTRACERS_AdamsBashGtr = /* apply AB on tracer tendency */
(PID.TID 0000.0001)                   F
(PID.TID 0000.0001)     ;
(PID.TID 0000.0001) PTRACERS_AdamsBash_Tr = /* apply AB on passive tracer */
(PID.TID 0000.0001)                   F
(PID.TID 0000.0001)     ;
(PID.TID 0000.0001) PTRACERS_diffKh = /* Laplacian Diffusivity */
(PID.TID 0000.0001)                 0.000000000000000E+00
(PID.TID 0000.0001)     ;
(PID.TID 0000.0001) PTRACERS_diffK4 = /* Biharmonic Diffusivity */
(PID.TID 0000.0001)                 0.000000000000000E+00
(PID.TID 0000.0001)     ;
(PID.TID 0000.0001) PTRACERS_diffKrNr = /* Vertical Diffusivity */
(PID.TID 0000.0001)    23 @  1.000000000000000E-05              /* K =  1: 23 */
(PID.TID 0000.0001)     ;
(PID.TID 0000.0001) PTRACERS_useGMRedi = /* apply GM-Redi */
(PID.TID 0000.0001)                   T
(PID.TID 0000.0001)     ;
(PID.TID 0000.0001) PTRACERS_useDWNSLP = /* apply DOWN-SLOPE Flow */
(PID.TID 0000.0001)                   F
(PID.TID 0000.0001)     ;
(PID.TID 0000.0001) PTRACERS_useKPP = /* apply KPP scheme */
(PID.TID 0000.0001)                   T
(PID.TID 0000.0001)     ;
(PID.TID 0000.0001) PTRACERS_stayPositive = /* use Smolarkiewicz Hack for this tracer */
(PID.TID 0000.0001)                   T
(PID.TID 0000.0001)     ;
(PID.TID 0000.0001) PTRACERS_ref = /* Reference vertical profile */
(PID.TID 0000.0001)    23 @  0.000000000000000E+00              /* K =  1: 23 */
(PID.TID 0000.0001)     ;
(PID.TID 0000.0001) PTRACERS_EvPrRn =/* tracer conc. in Evap. & Rain */
(PID.TID 0000.0001)                 1.234567000000000E+05
(PID.TID 0000.0001)     ;
(PID.TID 0000.0001)  -----------------------------------
(PID.TID 0000.0001)  tracer number :   31
(PID.TID 0000.0001) PTRACERS_names = /* Tracer short name */
(PID.TID 0000.0001)               'p03'
(PID.TID 0000.0001)     ;
(PID.TID 0000.0001) PTRACERS_long_names = /* Tracer long name */
(PID.TID 0000.0001)               ''
(PID.TID 0000.0001)     ;
(PID.TID 0000.0001) PTRACERS_ioLabel = /* tracer IO Label */
(PID.TID 0000.0001)               '31'
(PID.TID 0000.0001)     ;
(PID.TID 0000.0001) PTRACERS_advScheme = /* Advection Scheme */
(PID.TID 0000.0001)                      33
(PID.TID 0000.0001)     ;
(PID.TID 0000.0001) PTRACERS_SOM_Advection = /* tracer uses SOM advection scheme */
(PID.TID 0000.0001)                   F
(PID.TID 0000.0001)     ;
(PID.TID 0000.0001) PTRACERS_ImplVertAdv = /* implicit vert. advection flag */
(PID.TID 0000.0001)                   F
(PID.TID 0000.0001)     ;
(PID.TID 0000.0001) PTRACERS_MultiDimAdv = /* tracer uses Multi-Dim advection */
(PID.TID 0000.0001)                   T
(PID.TID 0000.0001)     ;
(PID.TID 0000.0001) PTRACERS_AdamsBashGtr = /* apply AB on tracer tendency */
(PID.TID 0000.0001)                   F
(PID.TID 0000.0001)     ;
(PID.TID 0000.0001) PTRACERS_AdamsBash_Tr = /* apply AB on passive tracer */
(PID.TID 0000.0001)                   F
(PID.TID 0000.0001)     ;
(PID.TID 0000.0001) PTRACERS_diffKh = /* Laplacian Diffusivity */
(PID.TID 0000.0001)                 0.000000000000000E+00
(PID.TID 0000.0001)     ;
(PID.TID 0000.0001) PTRACERS_diffK4 = /* Biharmonic Diffusivity */
(PID.TID 0000.0001)                 0.000000000000000E+00
(PID.TID 0000.0001)     ;
(PID.TID 0000.0001) PTRACERS_diffKrNr = /* Vertical Diffusivity */
(PID.TID 0000.0001)    23 @  1.000000000000000E-05              /* K =  1: 23 */
(PID.TID 0000.0001)     ;
(PID.TID 0000.0001) PTRACERS_useGMRedi = /* apply GM-Redi */
(PID.TID 0000.0001)                   T
(PID.TID 0000.0001)     ;
(PID.TID 0000.0001) PTRACERS_useDWNSLP = /* apply DOWN-SLOPE Flow */
(PID.TID 0000.0001)                   F
(PID.TID 0000.0001)     ;
(PID.TID 0000.0001) PTRACERS_useKPP = /* apply KPP scheme */
(PID.TID 0000.0001)                   T
(PID.TID 0000.0001)     ;
(PID.TID 0000.0001) PTRACERS_stayPositive = /* use Smolarkiewicz Hack for this tracer */
(PID.TID 0000.0001)                   T
(PID.TID 0000.0001)     ;
(PID.TID 0000.0001) PTRACERS_ref = /* Reference vertical profile */
(PID.TID 0000.0001)    23 @  0.000000000000000E+00              /* K =  1: 23 */
(PID.TID 0000.0001)     ;
(PID.TID 0000.0001) PTRACERS_EvPrRn =/* tracer conc. in Evap. & Rain */
(PID.TID 0000.0001)                 1.234567000000000E+05
(PID.TID 0000.0001)     ;
(PID.TID 0000.0001)  -----------------------------------
(PID.TID 0000.0001)  tracer number :   32
(PID.TID 0000.0001) PTRACERS_names = /* Tracer short name */
(PID.TID 0000.0001)               'p04'
(PID.TID 0000.0001)     ;
(PID.TID 0000.0001) PTRACERS_long_names = /* Tracer long name */
(PID.TID 0000.0001)               ''
(PID.TID 0000.0001)     ;
(PID.TID 0000.0001) PTRACERS_ioLabel = /* tracer IO Label */
(PID.TID 0000.0001)               '32'
(PID.TID 0000.0001)     ;
(PID.TID 0000.0001) PTRACERS_advScheme = /* Advection Scheme */
(PID.TID 0000.0001)                      33
(PID.TID 0000.0001)     ;
(PID.TID 0000.0001) PTRACERS_SOM_Advection = /* tracer uses SOM advection scheme */
(PID.TID 0000.0001)                   F
(PID.TID 0000.0001)     ;
(PID.TID 0000.0001) PTRACERS_ImplVertAdv = /* implicit vert. advection flag */
(PID.TID 0000.0001)                   F
(PID.TID 0000.0001)     ;
(PID.TID 0000.0001) PTRACERS_MultiDimAdv = /* tracer uses Multi-Dim advection */
(PID.TID 0000.0001)                   T
(PID.TID 0000.0001)     ;
(PID.TID 0000.0001) PTRACERS_AdamsBashGtr = /* apply AB on tracer tendency */
(PID.TID 0000.0001)                   F
(PID.TID 0000.0001)     ;
(PID.TID 0000.0001) PTRACERS_AdamsBash_Tr = /* apply AB on passive tracer */
(PID.TID 0000.0001)                   F
(PID.TID 0000.0001)     ;
(PID.TID 0000.0001) PTRACERS_diffKh = /* Laplacian Diffusivity */
(PID.TID 0000.0001)                 0.000000000000000E+00
(PID.TID 0000.0001)     ;
(PID.TID 0000.0001) PTRACERS_diffK4 = /* Biharmonic Diffusivity */
(PID.TID 0000.0001)                 0.000000000000000E+00
(PID.TID 0000.0001)     ;
(PID.TID 0000.0001) PTRACERS_diffKrNr = /* Vertical Diffusivity */
(PID.TID 0000.0001)    23 @  1.000000000000000E-05              /* K =  1: 23 */
(PID.TID 0000.0001)     ;
(PID.TID 0000.0001) PTRACERS_useGMRedi = /* apply GM-Redi */
(PID.TID 0000.0001)                   T
(PID.TID 0000.0001)     ;
(PID.TID 0000.0001) PTRACERS_useDWNSLP = /* apply DOWN-SLOPE Flow */
(PID.TID 0000.0001)                   F
(PID.TID 0000.0001)     ;
(PID.TID 0000.0001) PTRACERS_useKPP = /* apply KPP scheme */
(PID.TID 0000.0001)                   T
(PID.TID 0000.0001)     ;
(PID.TID 0000.0001) PTRACERS_stayPositive = /* use Smolarkiewicz Hack for this tracer */
(PID.TID 0000.0001)                   T
(PID.TID 0000.0001)     ;
(PID.TID 0000.0001) PTRACERS_ref = /* Reference vertical profile */
(PID.TID 0000.0001)    23 @  0.000000000000000E+00              /* K =  1: 23 */
(PID.TID 0000.0001)     ;
(PID.TID 0000.0001) PTRACERS_EvPrRn =/* tracer conc. in Evap. & Rain */
(PID.TID 0000.0001)                 1.234567000000000E+05
(PID.TID 0000.0001)     ;
(PID.TID 0000.0001)  -----------------------------------
(PID.TID 0000.0001)  tracer number :   33
(PID.TID 0000.0001) PTRACERS_names = /* Tracer short name */
(PID.TID 0000.0001)               'fe01'
(PID.TID 0000.0001)     ;
(PID.TID 0000.0001) PTRACERS_long_names = /* Tracer long name */
(PID.TID 0000.0001)               ''
(PID.TID 0000.0001)     ;
(PID.TID 0000.0001) PTRACERS_ioLabel = /* tracer IO Label */
(PID.TID 0000.0001)               '33'
(PID.TID 0000.0001)     ;
(PID.TID 0000.0001) PTRACERS_advScheme = /* Advection Scheme */
(PID.TID 0000.0001)                      33
(PID.TID 0000.0001)     ;
(PID.TID 0000.0001) PTRACERS_SOM_Advection = /* tracer uses SOM advection scheme */
(PID.TID 0000.0001)                   F
(PID.TID 0000.0001)     ;
(PID.TID 0000.0001) PTRACERS_ImplVertAdv = /* implicit vert. advection flag */
(PID.TID 0000.0001)                   F
(PID.TID 0000.0001)     ;
(PID.TID 0000.0001) PTRACERS_MultiDimAdv = /* tracer uses Multi-Dim advection */
(PID.TID 0000.0001)                   T
(PID.TID 0000.0001)     ;
(PID.TID 0000.0001) PTRACERS_AdamsBashGtr = /* apply AB on tracer tendency */
(PID.TID 0000.0001)                   F
(PID.TID 0000.0001)     ;
(PID.TID 0000.0001) PTRACERS_AdamsBash_Tr = /* apply AB on passive tracer */
(PID.TID 0000.0001)                   F
(PID.TID 0000.0001)     ;
(PID.TID 0000.0001) PTRACERS_diffKh = /* Laplacian Diffusivity */
(PID.TID 0000.0001)                 0.000000000000000E+00
(PID.TID 0000.0001)     ;
(PID.TID 0000.0001) PTRACERS_diffK4 = /* Biharmonic Diffusivity */
(PID.TID 0000.0001)                 0.000000000000000E+00
(PID.TID 0000.0001)     ;
(PID.TID 0000.0001) PTRACERS_diffKrNr = /* Vertical Diffusivity */
(PID.TID 0000.0001)    23 @  1.000000000000000E-05              /* K =  1: 23 */
(PID.TID 0000.0001)     ;
(PID.TID 0000.0001) PTRACERS_useGMRedi = /* apply GM-Redi */
(PID.TID 0000.0001)                   T
(PID.TID 0000.0001)     ;
(PID.TID 0000.0001) PTRACERS_useDWNSLP = /* apply DOWN-SLOPE Flow */
(PID.TID 0000.0001)                   F
(PID.TID 0000.0001)     ;
(PID.TID 0000.0001) PTRACERS_useKPP = /* apply KPP scheme */
(PID.TID 0000.0001)                   T
(PID.TID 0000.0001)     ;
(PID.TID 0000.0001) PTRACERS_stayPositive = /* use Smolarkiewicz Hack for this tracer */
(PID.TID 0000.0001)                   T
(PID.TID 0000.0001)     ;
(PID.TID 0000.0001) PTRACERS_ref = /* Reference vertical profile */
(PID.TID 0000.0001)    23 @  0.000000000000000E+00              /* K =  1: 23 */
(PID.TID 0000.0001)     ;
(PID.TID 0000.0001) PTRACERS_EvPrRn =/* tracer conc. in Evap. & Rain */
(PID.TID 0000.0001)                 1.234567000000000E+05
(PID.TID 0000.0001)     ;
(PID.TID 0000.0001)  -----------------------------------
(PID.TID 0000.0001)  tracer number :   34
(PID.TID 0000.0001) PTRACERS_names = /* Tracer short name */
(PID.TID 0000.0001)               'fe02'
(PID.TID 0000.0001)     ;
(PID.TID 0000.0001) PTRACERS_long_names = /* Tracer long name */
(PID.TID 0000.0001)               ''
(PID.TID 0000.0001)     ;
(PID.TID 0000.0001) PTRACERS_ioLabel = /* tracer IO Label */
(PID.TID 0000.0001)               '34'
(PID.TID 0000.0001)     ;
(PID.TID 0000.0001) PTRACERS_advScheme = /* Advection Scheme */
(PID.TID 0000.0001)                      33
(PID.TID 0000.0001)     ;
(PID.TID 0000.0001) PTRACERS_SOM_Advection = /* tracer uses SOM advection scheme */
(PID.TID 0000.0001)                   F
(PID.TID 0000.0001)     ;
(PID.TID 0000.0001) PTRACERS_ImplVertAdv = /* implicit vert. advection flag */
(PID.TID 0000.0001)                   F
(PID.TID 0000.0001)     ;
(PID.TID 0000.0001) PTRACERS_MultiDimAdv = /* tracer uses Multi-Dim advection */
(PID.TID 0000.0001)                   T
(PID.TID 0000.0001)     ;
(PID.TID 0000.0001) PTRACERS_AdamsBashGtr = /* apply AB on tracer tendency */
(PID.TID 0000.0001)                   F
(PID.TID 0000.0001)     ;
(PID.TID 0000.0001) PTRACERS_AdamsBash_Tr = /* apply AB on passive tracer */
(PID.TID 0000.0001)                   F
(PID.TID 0000.0001)     ;
(PID.TID 0000.0001) PTRACERS_diffKh = /* Laplacian Diffusivity */
(PID.TID 0000.0001)                 0.000000000000000E+00
(PID.TID 0000.0001)     ;
(PID.TID 0000.0001) PTRACERS_diffK4 = /* Biharmonic Diffusivity */
(PID.TID 0000.0001)                 0.000000000000000E+00
(PID.TID 0000.0001)     ;
(PID.TID 0000.0001) PTRACERS_diffKrNr = /* Vertical Diffusivity */
(PID.TID 0000.0001)    23 @  1.000000000000000E-05              /* K =  1: 23 */
(PID.TID 0000.0001)     ;
(PID.TID 0000.0001) PTRACERS_useGMRedi = /* apply GM-Redi */
(PID.TID 0000.0001)                   T
(PID.TID 0000.0001)     ;
(PID.TID 0000.0001) PTRACERS_useDWNSLP = /* apply DOWN-SLOPE Flow */
(PID.TID 0000.0001)                   F
(PID.TID 0000.0001)     ;
(PID.TID 0000.0001) PTRACERS_useKPP = /* apply KPP scheme */
(PID.TID 0000.0001)                   T
(PID.TID 0000.0001)     ;
(PID.TID 0000.0001) PTRACERS_stayPositive = /* use Smolarkiewicz Hack for this tracer */
(PID.TID 0000.0001)                   T
(PID.TID 0000.0001)     ;
(PID.TID 0000.0001) PTRACERS_ref = /* Reference vertical profile */
(PID.TID 0000.0001)    23 @  0.000000000000000E+00              /* K =  1: 23 */
(PID.TID 0000.0001)     ;
(PID.TID 0000.0001) PTRACERS_EvPrRn =/* tracer conc. in Evap. & Rain */
(PID.TID 0000.0001)                 1.234567000000000E+05
(PID.TID 0000.0001)     ;
(PID.TID 0000.0001)  -----------------------------------
(PID.TID 0000.0001)  tracer number :   35
(PID.TID 0000.0001) PTRACERS_names = /* Tracer short name */
(PID.TID 0000.0001)               'fe03'
(PID.TID 0000.0001)     ;
(PID.TID 0000.0001) PTRACERS_long_names = /* Tracer long name */
(PID.TID 0000.0001)               ''
(PID.TID 0000.0001)     ;
(PID.TID 0000.0001) PTRACERS_ioLabel = /* tracer IO Label */
(PID.TID 0000.0001)               '35'
(PID.TID 0000.0001)     ;
(PID.TID 0000.0001) PTRACERS_advScheme = /* Advection Scheme */
(PID.TID 0000.0001)                      33
(PID.TID 0000.0001)     ;
(PID.TID 0000.0001) PTRACERS_SOM_Advection = /* tracer uses SOM advection scheme */
(PID.TID 0000.0001)                   F
(PID.TID 0000.0001)     ;
(PID.TID 0000.0001) PTRACERS_ImplVertAdv = /* implicit vert. advection flag */
(PID.TID 0000.0001)                   F
(PID.TID 0000.0001)     ;
(PID.TID 0000.0001) PTRACERS_MultiDimAdv = /* tracer uses Multi-Dim advection */
(PID.TID 0000.0001)                   T
(PID.TID 0000.0001)     ;
(PID.TID 0000.0001) PTRACERS_AdamsBashGtr = /* apply AB on tracer tendency */
(PID.TID 0000.0001)                   F
(PID.TID 0000.0001)     ;
(PID.TID 0000.0001) PTRACERS_AdamsBash_Tr = /* apply AB on passive tracer */
(PID.TID 0000.0001)                   F
(PID.TID 0000.0001)     ;
(PID.TID 0000.0001) PTRACERS_diffKh = /* Laplacian Diffusivity */
(PID.TID 0000.0001)                 0.000000000000000E+00
(PID.TID 0000.0001)     ;
(PID.TID 0000.0001) PTRACERS_diffK4 = /* Biharmonic Diffusivity */
(PID.TID 0000.0001)                 0.000000000000000E+00
(PID.TID 0000.0001)     ;
(PID.TID 0000.0001) PTRACERS_diffKrNr = /* Vertical Diffusivity */
(PID.TID 0000.0001)    23 @  1.000000000000000E-05              /* K =  1: 23 */
(PID.TID 0000.0001)     ;
(PID.TID 0000.0001) PTRACERS_useGMRedi = /* apply GM-Redi */
(PID.TID 0000.0001)                   T
(PID.TID 0000.0001)     ;
(PID.TID 0000.0001) PTRACERS_useDWNSLP = /* apply DOWN-SLOPE Flow */
(PID.TID 0000.0001)                   F
(PID.TID 0000.0001)     ;
(PID.TID 0000.0001) PTRACERS_useKPP = /* apply KPP scheme */
(PID.TID 0000.0001)                   T
(PID.TID 0000.0001)     ;
(PID.TID 0000.0001) PTRACERS_stayPositive = /* use Smolarkiewicz Hack for this tracer */
(PID.TID 0000.0001)                   T
(PID.TID 0000.0001)     ;
(PID.TID 0000.0001) PTRACERS_ref = /* Reference vertical profile */
(PID.TID 0000.0001)    23 @  0.000000000000000E+00              /* K =  1: 23 */
(PID.TID 0000.0001)     ;
(PID.TID 0000.0001) PTRACERS_EvPrRn =/* tracer conc. in Evap. & Rain */
(PID.TID 0000.0001)                 1.234567000000000E+05
(PID.TID 0000.0001)     ;
(PID.TID 0000.0001)  -----------------------------------
(PID.TID 0000.0001)  tracer number :   36
(PID.TID 0000.0001) PTRACERS_names = /* Tracer short name */
(PID.TID 0000.0001)               'fe04'
(PID.TID 0000.0001)     ;
(PID.TID 0000.0001) PTRACERS_long_names = /* Tracer long name */
(PID.TID 0000.0001)               ''
(PID.TID 0000.0001)     ;
(PID.TID 0000.0001) PTRACERS_ioLabel = /* tracer IO Label */
(PID.TID 0000.0001)               '36'
(PID.TID 0000.0001)     ;
(PID.TID 0000.0001) PTRACERS_advScheme = /* Advection Scheme */
(PID.TID 0000.0001)                      33
(PID.TID 0000.0001)     ;
(PID.TID 0000.0001) PTRACERS_SOM_Advection = /* tracer uses SOM advection scheme */
(PID.TID 0000.0001)                   F
(PID.TID 0000.0001)     ;
(PID.TID 0000.0001) PTRACERS_ImplVertAdv = /* implicit vert. advection flag */
(PID.TID 0000.0001)                   F
(PID.TID 0000.0001)     ;
(PID.TID 0000.0001) PTRACERS_MultiDimAdv = /* tracer uses Multi-Dim advection */
(PID.TID 0000.0001)                   T
(PID.TID 0000.0001)     ;
(PID.TID 0000.0001) PTRACERS_AdamsBashGtr = /* apply AB on tracer tendency */
(PID.TID 0000.0001)                   F
(PID.TID 0000.0001)     ;
(PID.TID 0000.0001) PTRACERS_AdamsBash_Tr = /* apply AB on passive tracer */
(PID.TID 0000.0001)                   F
(PID.TID 0000.0001)     ;
(PID.TID 0000.0001) PTRACERS_diffKh = /* Laplacian Diffusivity */
(PID.TID 0000.0001)                 0.000000000000000E+00
(PID.TID 0000.0001)     ;
(PID.TID 0000.0001) PTRACERS_diffK4 = /* Biharmonic Diffusivity */
(PID.TID 0000.0001)                 0.000000000000000E+00
(PID.TID 0000.0001)     ;
(PID.TID 0000.0001) PTRACERS_diffKrNr = /* Vertical Diffusivity */
(PID.TID 0000.0001)    23 @  1.000000000000000E-05              /* K =  1: 23 */
(PID.TID 0000.0001)     ;
(PID.TID 0000.0001) PTRACERS_useGMRedi = /* apply GM-Redi */
(PID.TID 0000.0001)                   T
(PID.TID 0000.0001)     ;
(PID.TID 0000.0001) PTRACERS_useDWNSLP = /* apply DOWN-SLOPE Flow */
(PID.TID 0000.0001)                   F
(PID.TID 0000.0001)     ;
(PID.TID 0000.0001) PTRACERS_useKPP = /* apply KPP scheme */
(PID.TID 0000.0001)                   T
(PID.TID 0000.0001)     ;
(PID.TID 0000.0001) PTRACERS_stayPositive = /* use Smolarkiewicz Hack for this tracer */
(PID.TID 0000.0001)                   T
(PID.TID 0000.0001)     ;
(PID.TID 0000.0001) PTRACERS_ref = /* Reference vertical profile */
(PID.TID 0000.0001)    23 @  0.000000000000000E+00              /* K =  1: 23 */
(PID.TID 0000.0001)     ;
(PID.TID 0000.0001) PTRACERS_EvPrRn =/* tracer conc. in Evap. & Rain */
(PID.TID 0000.0001)                 1.234567000000000E+05
(PID.TID 0000.0001)     ;
(PID.TID 0000.0001)  -----------------------------------
(PID.TID 0000.0001) GCHEM_CHECK  --> Starts to check GCHEM set-up
(PID.TID 0000.0001) GUD_CHECK: #define ALLOW_GUD
(PID.TID 0000.0001) GUD_CHECK: iPtr gud       PTRACERS_names
(PID.TID 0000.0001) GUD_CHECK:    1 DIC       DIC
(PID.TID 0000.0001) GUD_CHECK:    2 NH4       NH4
(PID.TID 0000.0001) GUD_CHECK:    3 NO2       NO2
(PID.TID 0000.0001) GUD_CHECK:    4 NO3       NO3
(PID.TID 0000.0001) GUD_CHECK:    5 PO4       PO4
(PID.TID 0000.0001) GUD_CHECK:    6 SiO2      SiO2
(PID.TID 0000.0001) GUD_CHECK:    7 FeT       FeT
(PID.TID 0000.0001) GUD_CHECK:    8 DOC       DOC
(PID.TID 0000.0001) GUD_CHECK:    9 DON       DON
(PID.TID 0000.0001) GUD_CHECK:   10 DOP       DOP
(PID.TID 0000.0001) GUD_CHECK:   11 DOFe      DOFe
(PID.TID 0000.0001) GUD_CHECK:   12 POC       POC
(PID.TID 0000.0001) GUD_CHECK:   13 PON       PON
(PID.TID 0000.0001) GUD_CHECK:   14 POP       POP
(PID.TID 0000.0001) GUD_CHECK:   15 POSi      POSi
(PID.TID 0000.0001) GUD_CHECK:   16 POFe      POFe
(PID.TID 0000.0001) GUD_CHECK:   17 PIC       PIC
(PID.TID 0000.0001) GUD_CHECK:   18 ALK       ALK
(PID.TID 0000.0001) GUD_CHECK:   19 O2        O2
(PID.TID 0000.0001) GUD_CHECK:   20 CDOM      CDOM01
(PID.TID 0000.0001) GUD_CHECK:   21 c       1 c01
(PID.TID 0000.0001) GUD_CHECK:   22 c       2 c02
(PID.TID 0000.0001) GUD_CHECK:   23 c       3 c03
(PID.TID 0000.0001) GUD_CHECK:   24 c       4 c04
(PID.TID 0000.0001) GUD_CHECK:   25 n       1 n01
(PID.TID 0000.0001) GUD_CHECK:   26 n       2 n02
(PID.TID 0000.0001) GUD_CHECK:   27 n       3 n03
(PID.TID 0000.0001) GUD_CHECK:   28 n       4 n04
(PID.TID 0000.0001) GUD_CHECK:   29 p       1 p01
(PID.TID 0000.0001) GUD_CHECK:   30 p       2 p02
(PID.TID 0000.0001) GUD_CHECK:   31 p       3 p03
(PID.TID 0000.0001) GUD_CHECK:   32 p       4 p04
(PID.TID 0000.0001) GUD_CHECK:   33 fe      1 fe01
(PID.TID 0000.0001) GUD_CHECK:   34 fe      2 fe02
(PID.TID 0000.0001) GUD_CHECK:   35 fe      3 fe03
(PID.TID 0000.0001) GUD_CHECK:   36 fe      4 fe04
(PID.TID 0000.0001) GCHEM_CHECK  <-- Ends Normally
(PID.TID 0000.0001) 
(PID.TID 0000.0001) OFFLINE_CHECK: #define OFFLINE
(PID.TID 0000.0001) offlineLoadGMRedi= /* load (not compute) GMRedi tensor */
(PID.TID 0000.0001)                   T
(PID.TID 0000.0001)     ;
(PID.TID 0000.0001) offlineLoadKPP= /* load (not compute) KPP mixing coeff */
(PID.TID 0000.0001)                   T
(PID.TID 0000.0001)     ;
(PID.TID 0000.0001) offlineLoadConvec= /* load (not compute) Convect Mix */
(PID.TID 0000.0001)                   F
(PID.TID 0000.0001)     ;
(PID.TID 0000.0001) offlineIter0 = /* initial offline field timestep */
(PID.TID 0000.0001)                   78912
(PID.TID 0000.0001)     ;
(PID.TID 0000.0001) offlineTimeOffset = /* time offset [s] */
(PID.TID 0000.0001)                 0.000000000000000E+00
(PID.TID 0000.0001)     ;
(PID.TID 0000.0001) offlineLoadPrec = /* precision (32,64) of offline files */
(PID.TID 0000.0001)                      32
(PID.TID 0000.0001)     ;
(PID.TID 0000.0001) deltaToffline = /* time-step to load offline files */
(PID.TID 0000.0001)                 3.600000000000000E+03
(PID.TID 0000.0001)     ;
(PID.TID 0000.0001) offlineForcingPeriod= /* time interval between reccords [s] */
(PID.TID 0000.0001)                 8.640000000000000E+04
(PID.TID 0000.0001)     ;
(PID.TID 0000.0001) offlineForcingCycle = /* length of 1 cycle [s] */
(PID.TID 0000.0001)                 3.110400000000000E+07
(PID.TID 0000.0001)     ;
(PID.TID 0000.0001) UvelFile = /* file name of loaded uVel field */
(PID.TID 0000.0001)               'ECCO_Iter3.73daily/DDuvel/DDuvel'
(PID.TID 0000.0001)     ;
(PID.TID 0000.0001) OFFLINE_CHECK: done
(PID.TID 0000.0001) GAD_CHECK: #define ALLOW_GENERIC_ADVDIFF
(PID.TID 0000.0001) // =======================================================
(PID.TID 0000.0001) // Check Model config. (CONFIG_CHECK):
(PID.TID 0000.0001) // CONFIG_CHECK : Normal End
(PID.TID 0000.0001) // =======================================================
(PID.TID 0000.0001) 
(PID.TID 0000.0001)  write diagnostics summary to file ioUnit:      6
Iter.Nb:         0 ; Time(s):  0.0000000000000E+00
------------------------------------------------------------------------
2D/3D diagnostics: Number of lists:     4
------------------------------------------------------------------------
listId=    1 ; file name: 3d
 nFlds, nActive,       freq     &     phase        , nLev               
   92  |   92  |      3600.000000         0.000000 |  23
 levels:   1   2   3   4   5   6   7   8   9  10  11  12  13  14  15  16  17  18  19  20  21  22  23
 diag# | name   |   ipt  |  iMate | kLev|   count |   mate.C|           
   183 |TRAC01  |      1 |      0 |  23 |       0 |
   198 |TRAC02  |     24 |      0 |  23 |       0 |
   213 |TRAC03  |     47 |      0 |  23 |       0 |
   228 |TRAC04  |     70 |      0 |  23 |       0 |
   243 |TRAC05  |     93 |      0 |  23 |       0 |
   258 |TRAC06  |    116 |      0 |  23 |       0 |
   273 |TRAC07  |    139 |      0 |  23 |       0 |
   288 |TRAC08  |    162 |      0 |  23 |       0 |
   303 |TRAC09  |    185 |      0 |  23 |       0 |
   318 |TRAC10  |    208 |      0 |  23 |       0 |
   333 |TRAC11  |    231 |      0 |  23 |       0 |
   348 |TRAC12  |    254 |      0 |  23 |       0 |
   363 |TRAC13  |    277 |      0 |  23 |       0 |
   378 |TRAC14  |    300 |      0 |  23 |       0 |
   393 |TRAC15  |    323 |      0 |  23 |       0 |
   408 |TRAC16  |    346 |      0 |  23 |       0 |
   423 |TRAC17  |    369 |      0 |  23 |       0 |
   438 |TRAC18  |    392 |      0 |  23 |       0 |
   453 |TRAC19  |    415 |      0 |  23 |       0 |
   468 |TRAC20  |    438 |      0 |  23 |       0 |
   483 |TRAC21  |    461 |      0 |  23 |       0 |
   498 |TRAC22  |    484 |      0 |  23 |       0 |
   513 |TRAC23  |    507 |      0 |  23 |       0 |
   528 |TRAC24  |    530 |      0 |  23 |       0 |
   543 |TRAC25  |    553 |      0 |  23 |       0 |
   558 |TRAC26  |    576 |      0 |  23 |       0 |
   573 |TRAC27  |    599 |      0 |  23 |       0 |
   588 |TRAC28  |    622 |      0 |  23 |       0 |
   603 |TRAC29  |    645 |      0 |  23 |       0 |
   618 |TRAC30  |    668 |      0 |  23 |       0 |
   633 |TRAC31  |    691 |      0 |  23 |       0 |
   648 |TRAC32  |    714 |      0 |  23 |       0 |
   663 |TRAC33  |    737 |      0 |  23 |       0 |
   678 |TRAC34  |    760 |      0 |  23 |       0 |
   693 |TRAC35  |    783 |      0 |  23 |       0 |
   708 |TRAC36  |    806 |      0 |  23 |       0 |
   990 |PAR     |    829 |      0 |  23 |       0 |
   724 |PP      |    852 |      0 |  23 |       0 |
   725 |Nfix    |    875 |      0 |  23 |       0 |
   726 |Denit   |    898 |      0 |  23 |       0 |
  1035 |pH      |    921 |      0 |  23 |       0 |
  1036 |pCO2    |    944 |      0 |  23 |       0 |
   728 |PC0001  |    967 |      0 |  23 |       0 |
   727 |PChl0001|    990 |      0 |  23 |       0 |
   729 |VN0001  |   1013 |      0 |  23 |       0 |
   730 |MODE0001|   1036 |      0 |  23 |       0 |
   731 |Fe_C0001|   1059 |      0 |  23 |       0 |
   732 |exQc0001|   1082 |      0 |  23 |       0 |
   733 |PCg0001 |   1105 |      0 |  23 |       0 |
   734 |CChl0001|   1128 |      0 |  23 |       0 |
   735 |NChl0001|   1151 |      0 |  23 |       0 |
   736 |NPho0001|   1174 |      0 |  23 |       0 |
   737 |NSyn0001|   1197 |      0 |  23 |       0 |
   738 |NPrn0001|   1220 |      0 |  23 |       0 |
   739 |NRNA0001|   1243 |      0 |  23 |       0 |
   740 |NDNA0001|   1266 |      0 |  23 |       0 |
   741 |NSTO0001|   1289 |      0 |  23 |       0 |
   742 |NEXC0001|   1312 |      0 |  23 |       0 |
   743 |PRNA0001|   1335 |      0 |  23 |       0 |
   744 |PDNA0001|   1358 |      0 |  23 |       0 |
   745 |PTHY0001|   1381 |      0 |  23 |       0 |
   746 |PCON0001|   1404 |      0 |  23 |       0 |
   747 |PSTO0001|   1427 |      0 |  23 |       0 |
   748 |PEXC0001|   1450 |      0 |  23 |       0 |
   749 |FPHO0001|   1473 |      0 |  23 |       0 |
   750 |FSTO0001|   1496 |      0 |  23 |       0 |
   751 |FEXC0001|   1519 |      0 |  23 |       0 |
   759 |CChl0002|   1542 |      0 |  23 |       0 |
   760 |NChl0002|   1565 |      0 |  23 |       0 |
   761 |NPho0002|   1588 |      0 |  23 |       0 |
   762 |NSyn0002|   1611 |      0 |  23 |       0 |
   763 |NPrn0002|   1634 |      0 |  23 |       0 |
   764 |NRNA0002|   1657 |      0 |  23 |       0 |
   765 |NDNA0002|   1680 |      0 |  23 |       0 |
   766 |NSTO0002|   1703 |      0 |  23 |       0 |
   767 |NEXC0002|   1726 |      0 |  23 |       0 |
   768 |PRNA0002|   1749 |      0 |  23 |       0 |
   769 |PDNA0002|   1772 |      0 |  23 |       0 |
   770 |PTHY0002|   1795 |      0 |  23 |       0 |
   771 |PCON0002|   1818 |      0 |  23 |       0 |
   772 |PSTO0002|   1841 |      0 |  23 |       0 |
   773 |PEXC0002|   1864 |      0 |  23 |       0 |
   774 |FPHO0002|   1887 |      0 |  23 |       0 |
   775 |FSTO0002|   1910 |      0 |  23 |       0 |
   776 |FEXC0002|   1933 |      0 |  23 |       0 |
   753 |PC0002  |   1956 |      0 |  23 |       0 |
   752 |PChl0002|   1979 |      0 |  23 |       0 |
   754 |VN0002  |   2002 |      0 |  23 |       0 |
   755 |MODE0002|   2025 |      0 |  23 |       0 |
   756 |Fe_C0002|   2048 |      0 |  23 |       0 |
   757 |exQc0002|   2071 |      0 |  23 |       0 |
   758 |PCg0002 |   2094 |      0 |  23 |       0 |
------------------------------------------------------------------------
listId=    2 ; file name: iops
 nFlds, nActive,       freq     &     phase        , nLev               
   52  |   52  |   2592000.000000         0.000000 |  23
 levels:   1   2   3   4   5   6   7   8   9  10  11  12  13  14  15  16  17  18  19  20  21  22  23
 diag# | name   |   ipt  |  iMate | kLev|   count |   mate.C|           
   784 |a001    |   2117 |      0 |  23 |       0 |
   800 |a002    |   2140 |      0 |  23 |       0 |
   816 |a003    |   2163 |      0 |  23 |       0 |
   832 |a004    |   2186 |      0 |  23 |       0 |
   848 |a005    |   2209 |      0 |  23 |       0 |
   864 |a006    |   2232 |      0 |  23 |       0 |
   880 |a007    |   2255 |      0 |  23 |       0 |
   896 |a008    |   2278 |      0 |  23 |       0 |
   912 |a009    |   2301 |      0 |  23 |       0 |
   928 |a010    |   2324 |      0 |  23 |       0 |
   944 |a011    |   2347 |      0 |  23 |       0 |
   960 |a012    |   2370 |      0 |  23 |       0 |
   976 |a013    |   2393 |      0 |  23 |       0 |
   785 |bt001   |   2416 |      0 |  23 |       0 |
   801 |bt002   |   2439 |      0 |  23 |       0 |
   817 |bt003   |   2462 |      0 |  23 |       0 |
   833 |bt004   |   2485 |      0 |  23 |       0 |
   849 |bt005   |   2508 |      0 |  23 |       0 |
   865 |bt006   |   2531 |      0 |  23 |       0 |
   881 |bt007   |   2554 |      0 |  23 |       0 |
   897 |bt008   |   2577 |      0 |  23 |       0 |
   913 |bt009   |   2600 |      0 |  23 |       0 |
   929 |bt010   |   2623 |      0 |  23 |       0 |
   945 |bt011   |   2646 |      0 |  23 |       0 |
   961 |bt012   |   2669 |      0 |  23 |       0 |
   977 |bt013   |   2692 |      0 |  23 |       0 |
   786 |bb001   |   2715 |      0 |  23 |       0 |
   802 |bb002   |   2738 |      0 |  23 |       0 |
   818 |bb003   |   2761 |      0 |  23 |       0 |
   834 |bb004   |   2784 |      0 |  23 |       0 |
   850 |bb005   |   2807 |      0 |  23 |       0 |
   882 |bb007   |   2830 |      0 |  23 |       0 |
   898 |bb008   |   2853 |      0 |  23 |       0 |
   914 |bb009   |   2876 |      0 |  23 |       0 |
   930 |bb010   |   2899 |      0 |  23 |       0 |
   946 |bb011   |   2922 |      0 |  23 |       0 |
   962 |bb012   |   2945 |      0 |  23 |       0 |
   978 |bb013   |   2968 |      0 |  23 |       0 |
   793 |aCDOM001|   2991 |      0 |  23 |       0 |
   809 |aCDOM002|   3014 |      0 |  23 |       0 |
   825 |aCDOM003|   3037 |      0 |  23 |       0 |
   841 |aCDOM004|   3060 |      0 |  23 |       0 |
   857 |aCDOM005|   3083 |      0 |  23 |       0 |
   873 |aCDOM006|   3106 |      0 |  23 |       0 |
   889 |aCDOM007|   3129 |      0 |  23 |       0 |
   905 |aCDOM008|   3152 |      0 |  23 |       0 |
   921 |aCDOM009|   3175 |      0 |  23 |       0 |
   937 |aCDOM010|   3198 |      0 |  23 |       0 |
   953 |aCDOM011|   3221 |      0 |  23 |       0 |
   969 |aCDOM012|   3244 |      0 |  23 |       0 |
   985 |aCDOM013|   3267 |      0 |  23 |       0 |
   866 |bb006   |   3290 |      0 |  23 |       0 |
------------------------------------------------------------------------
listId=    3 ; file name: par
 nFlds, nActive,       freq     &     phase        , nLev               
   52  |   52  |   2592000.000000         0.000000 |  23
 levels:   1   2   3   4   5   6   7   8   9  10  11  12  13  14  15  16  17  18  19  20  21  22  23
 diag# | name   |   ipt  |  iMate | kLev|   count |   mate.C|           
   779 |Ed001   |   3313 |      0 |  23 |       0 |
   795 |Ed002   |   3336 |      0 |  23 |       0 |
   811 |Ed003   |   3359 |      0 |  23 |       0 |
   827 |Ed004   |   3382 |      0 |  23 |       0 |
   843 |Ed005   |   3405 |      0 |  23 |       0 |
   859 |Ed006   |   3428 |      0 |  23 |       0 |
   875 |Ed007   |   3451 |      0 |  23 |       0 |
   891 |Ed008   |   3474 |      0 |  23 |       0 |
   907 |Ed009   |   3497 |      0 |  23 |       0 |
   923 |Ed010   |   3520 |      0 |  23 |       0 |
   939 |Ed011   |   3543 |      0 |  23 |       0 |
   955 |Ed012   |   3566 |      0 |  23 |       0 |
   971 |Ed013   |   3589 |      0 |  23 |       0 |
   780 |Es001   |   3612 |      0 |  23 |       0 |
   796 |Es002   |   3635 |      0 |  23 |       0 |
   812 |Es003   |   3658 |      0 |  23 |       0 |
   828 |Es004   |   3681 |      0 |  23 |       0 |
   844 |Es005   |   3704 |      0 |  23 |       0 |
   860 |Es006   |   3727 |      0 |  23 |       0 |
   876 |Es007   |   3750 |      0 |  23 |       0 |
   892 |Es008   |   3773 |      0 |  23 |       0 |
   908 |Es009   |   3796 |      0 |  23 |       0 |
   924 |Es010   |   3819 |      0 |  23 |       0 |
   940 |Es011   |   3842 |      0 |  23 |       0 |
   956 |Es012   |   3865 |      0 |  23 |       0 |
   972 |Es013   |   3888 |      0 |  23 |       0 |
   781 |Eu001   |   3911 |      0 |  23 |       0 |
   797 |Eu002   |   3934 |      0 |  23 |       0 |
   813 |Eu003   |   3957 |      0 |  23 |       0 |
   829 |Eu004   |   3980 |      0 |  23 |       0 |
   845 |Eu005   |   4003 |      0 |  23 |       0 |
   861 |Eu006   |   4026 |      0 |  23 |       0 |
   877 |Eu007   |   4049 |      0 |  23 |       0 |
   893 |Eu008   |   4072 |      0 |  23 |       0 |
   909 |Eu009   |   4095 |      0 |  23 |       0 |
   925 |Eu010   |   4118 |      0 |  23 |       0 |
   941 |Eu011   |   4141 |      0 |  23 |       0 |
   957 |Eu012   |   4164 |      0 |  23 |       0 |
   973 |Eu013   |   4187 |      0 |  23 |       0 |
   782 |PAR001  |   4210 |      0 |  23 |       0 |
   798 |PAR002  |   4233 |      0 |  23 |       0 |
   814 |PAR003  |   4256 |      0 |  23 |       0 |
   830 |PAR004  |   4279 |      0 |  23 |       0 |
   846 |PAR005  |   4302 |      0 |  23 |       0 |
   862 |PAR006  |   4325 |      0 |  23 |       0 |
   878 |PAR007  |   4348 |      0 |  23 |       0 |
   894 |PAR008  |   4371 |      0 |  23 |       0 |
   910 |PAR009  |   4394 |      0 |  23 |       0 |
   926 |PAR010  |   4417 |      0 |  23 |       0 |
   942 |PAR011  |   4440 |      0 |  23 |       0 |
   958 |PAR012  |   4463 |      0 |  23 |       0 |
   974 |PAR013  |   4486 |      0 |  23 |       0 |
------------------------------------------------------------------------
listId=    4 ; file name: 2d
 nFlds, nActive,       freq     &     phase        , nLev               
    4  |    4  |   2592000.000000         0.000000 |   1
 levels:   1
 diag# | name   |   ipt  |  iMate | kLev|   count |   mate.C|           
  1037 |fluxCO2 |   4509 |      0 |   1 |       0 |
  1038 |gDICsurf|   4510 |      0 |   1 |       0 |
  1039 |gALKsurf|   4511 |      0 |   1 |       0 |
  1040 |gO2surf |   4512 |      0 |   1 |       0 |
------------------------------------------------------------------------
Global & Regional Statistics diagnostics: Number of lists:     3
------------------------------------------------------------------------
listId=   1 ; file name: statsPP
 nFlds, nActive,       freq     &     phase        |                    
    1  |    1  |     10800.000000         0.000000 |
 Regions:   0
 diag# | name   |   ipt  |  iMate |    Volume   |   mate-Vol. |         
   724 |PP      |      1 |      0 | 0.00000E+00 |
------------------------------------------------------------------------
listId=   2 ; file name: statsNfix
 nFlds, nActive,       freq     &     phase        |                    
    1  |    1  |     10800.000000         0.000000 |
 Regions:   0
 diag# | name   |   ipt  |  iMate |    Volume   |   mate-Vol. |         
   725 |Nfix    |     24 |      0 | 0.00000E+00 |
------------------------------------------------------------------------
listId=   3 ; file name: statsDenit
 nFlds, nActive,       freq     &     phase        |                    
    1  |    1  |     10800.000000         0.000000 |
 Regions:   0
 diag# | name   |   ipt  |  iMate |    Volume   |   mate-Vol. |         
   726 |Denit   |     47 |      0 | 0.00000E+00 |
------------------------------------------------------------------------
 OFFLINE_FIELDS_LOAD, it=         0 : Reading new data, i0,i1=  360    1 (prev=  360    0 )
(PID.TID 0000.0001)  MDS_READ_FIELD: opening global file: ECCO_Iter3.73daily/DDuvel/DDuvel.0000087552.data
(PID.TID 0000.0001)  MDS_READ_FIELD: opening global file: ECCO_Iter3.73daily/DDuvel/DDuvel.0000078936.data
(PID.TID 0000.0001)  MDS_READ_FIELD: opening global file: ECCO_Iter3.73daily/DDvvel/DDvvel.0000087552.data
(PID.TID 0000.0001)  MDS_READ_FIELD: opening global file: ECCO_Iter3.73daily/DDvvel/DDvvel.0000078936.data
(PID.TID 0000.0001)  MDS_READ_FIELD: opening global file: ECCO_Iter3.73daily/DDwvel/DDwvel.0000087552.data
(PID.TID 0000.0001)  MDS_READ_FIELD: opening global file: ECCO_Iter3.73daily/DDwvel/DDwvel.0000078936.data
(PID.TID 0000.0001)  MDS_READ_FIELD: opening global file: ECCO_Iter3.73daily/DDtheta/DDtheta.0000087552.data
(PID.TID 0000.0001)  MDS_READ_FIELD: opening global file: ECCO_Iter3.73daily/DDtheta/DDtheta.0000078936.data
(PID.TID 0000.0001)  MDS_READ_FIELD: opening global file: ECCO_Iter3.73daily/DDsalt/DDsalt.0000087552.data
(PID.TID 0000.0001)  MDS_READ_FIELD: opening global file: ECCO_Iter3.73daily/DDsalt/DDsalt.0000078936.data
(PID.TID 0000.0001)  MDS_READ_FIELD: opening global file: ECCO_Iter3.73daily/DGMkwx/DGMkwx.0000087552.data
(PID.TID 0000.0001)  MDS_READ_FIELD: opening global file: ECCO_Iter3.73daily/DGMkwx/DGMkwx.0000078936.data
(PID.TID 0000.0001)  MDS_READ_FIELD: opening global file: ECCO_Iter3.73daily/DGMkwy/DGMkwy.0000087552.data
(PID.TID 0000.0001)  MDS_READ_FIELD: opening global file: ECCO_Iter3.73daily/DGMkwy/DGMkwy.0000078936.data
(PID.TID 0000.0001)  MDS_READ_FIELD: opening global file: ECCO_Iter3.73daily/DGMkwz/DGMkwz.0000087552.data
(PID.TID 0000.0001)  MDS_READ_FIELD: opening global file: ECCO_Iter3.73daily/DGMkwz/DGMkwz.0000078936.data
(PID.TID 0000.0001)  MDS_READ_FIELD: opening global file: ECCO_Iter3.73daily/DKPPdiffs/DKPPdiffs.0000087552.data
(PID.TID 0000.0001)  MDS_READ_FIELD: opening global file: ECCO_Iter3.73daily/DKPPdiffs/DKPPdiffs.0000078936.data
(PID.TID 0000.0001)  MDS_READ_FIELD: opening global file: ECCO_Iter3.73daily/DKPPghatK/DKPPghatK.0000087552.data
(PID.TID 0000.0001)  MDS_READ_FIELD: opening global file: ECCO_Iter3.73daily/DKPPghatK/DKPPghatK.0000078936.data
(PID.TID 0000.0001)  MDS_READ_FIELD: opening global file: ECCO_Iter3.73daily/DFOSflux/DFOSflux.0000087552.data
(PID.TID 0000.0001)  MDS_READ_FIELD: opening global file: ECCO_Iter3.73daily/DFOSflux/DFOSflux.0000078936.data
(PID.TID 0000.0001)  MDS_READ_FIELD: opening global file: input_ecco/glodap_tco2_ann-3d.bin
(PID.TID 0000.0001)  MDS_READ_FIELD: opening global file: DARWIN_ECCO_run17/nh4_y2000.data
(PID.TID 0000.0001)  MDS_READ_FIELD: opening global file: DARWIN_ECCO_run17/no2_y2000.data
(PID.TID 0000.0001)  MDS_READ_FIELD: opening global file: input_ecco/lev01_nitrate_ann-3d.bin
(PID.TID 0000.0001)  MDS_READ_FIELD: opening global file: input_ecco/lev01_phosphate_ann-3d.bin
(PID.TID 0000.0001)  MDS_READ_FIELD: opening global file: input_ecco/lev01_silicate_ann-3d.bin
(PID.TID 0000.0001)  MDS_READ_FIELD: opening global file: DARWIN_ECCO_run17/fet_y2000.data
(PID.TID 0000.0001)  MDS_READ_FIELD: opening global file: DARWIN_ECCO_run17/doc_y2000.data
(PID.TID 0000.0001)  MDS_READ_FIELD: opening global file: DARWIN_ECCO_run17/don_y2000.data
(PID.TID 0000.0001)  MDS_READ_FIELD: opening global file: DARWIN_ECCO_run17/dop_y2000.data
(PID.TID 0000.0001)  MDS_READ_FIELD: opening global file: DARWIN_ECCO_run17/dofe_y2000.data
(PID.TID 0000.0001)  MDS_READ_FIELD: opening global file: DARWIN_ECCO_run17/poc_y2000.data
(PID.TID 0000.0001)  MDS_READ_FIELD: opening global file: DARWIN_ECCO_run17/pon_y2000.data
(PID.TID 0000.0001)  MDS_READ_FIELD: opening global file: DARWIN_ECCO_run17/pop_y2000.data
(PID.TID 0000.0001)  MDS_READ_FIELD: opening global file: DARWIN_ECCO_run17/posi_y2000.data
(PID.TID 0000.0001)  MDS_READ_FIELD: opening global file: DARWIN_ECCO_run17/pofe_y2000.data
(PID.TID 0000.0001)  MDS_READ_FIELD: opening global file: DARWIN_ECCO_run17/pic_y2000.data
(PID.TID 0000.0001)  MDS_READ_FIELD: opening global file: input_ecco/glodap_alk_ann-3d.bin
(PID.TID 0000.0001)  MDS_READ_FIELD: opening global file: input_ecco/lev01_oxygen_ann-3d.bin
(PID.TID 0000.0001)  MDS_READ_FIELD: opening global file: input_ecco/CDOM_run129abb4.bin
(PID.TID 0000.0001)  MDS_READ_FIELD: opening global file: DARWIN_ECCO_run17/phy_6species_y2000.data
(PID.TID 0000.0001)  MDS_READ_FIELD: opening global file: DARWIN_ECCO_run17/phy_6species_y2000.data
(PID.TID 0000.0001)  MDS_READ_FIELD: opening global file: DARWIN_ECCO_run17/phy_6species_y2000.data
(PID.TID 0000.0001)  MDS_READ_FIELD: opening global file: DARWIN_ECCO_run17/phy_6species_y2000.data
(PID.TID 0000.0001)  MDS_READ_FIELD: opening global file: DARWIN_ECCO_run17/phy_6speciesn_y2000.data
(PID.TID 0000.0001)  MDS_READ_FIELD: opening global file: DARWIN_ECCO_run17/phy_6speciesn_y2000.data
(PID.TID 0000.0001)  MDS_READ_FIELD: opening global file: DARWIN_ECCO_run17/phy_6speciesn_y2000.data
(PID.TID 0000.0001)  MDS_READ_FIELD: opening global file: DARWIN_ECCO_run17/phy_6speciesn_y2000.data
(PID.TID 0000.0001)  MDS_READ_FIELD: opening global file: DARWIN_ECCO_run17/phy_6speciesp_y2000.data
(PID.TID 0000.0001)  MDS_READ_FIELD: opening global file: DARWIN_ECCO_run17/phy_6speciesp_y2000.data
(PID.TID 0000.0001)  MDS_READ_FIELD: opening global file: DARWIN_ECCO_run17/phy_6speciesp_y2000.data
(PID.TID 0000.0001)  MDS_READ_FIELD: opening global file: DARWIN_ECCO_run17/phy_6speciesp_y2000.data
(PID.TID 0000.0001)  MDS_READ_FIELD: opening global file: DARWIN_ECCO_run17/phy_6speciesfe_y2000.data
(PID.TID 0000.0001)  MDS_READ_FIELD: opening global file: DARWIN_ECCO_run17/phy_6speciesfe_y2000.data
(PID.TID 0000.0001)  MDS_READ_FIELD: opening global file: DARWIN_ECCO_run17/phy_6speciesfe_y2000.data
(PID.TID 0000.0001)  MDS_READ_FIELD: opening global file: DARWIN_ECCO_run17/phy_6speciesfe_y2000.data
(PID.TID 0000.0001)  MDS_READ_META: opening file: pickup_ptracers.0000025920.meta
(PID.TID 0000.0001)  nRecords =  36 ; filePrec =  64 ; fileIter =     25920
(PID.TID 0000.0001)     nDims =   3 , dims:
(PID.TID 0000.0001)    1: 360   1 360
(PID.TID 0000.0001)    2: 160   1 160
(PID.TID 0000.0001)    3:  23   1  23
(PID.TID 0000.0001)     nFlds =  36 , nFl3D =   0 , fields:
(PID.TID 0000.0001)  >pTr01   < >pTr02   < >pTr03   < >pTr04   < >pTr05   < >pTr06   < >pTr07   < >pTr08   < >pTr09   < >pTr10   < >pTr11   < >pTr12   < >pTr13   < >pTr14   < >pTr15   < >pTr16   < >pTr17   < >pTr18   < >pTr19   < >pTr20   <
(PID.TID 0000.0001)  >pTr21   < >pTr22   < >pTr23   < >pTr24   < >pTr25   < >pTr26   < >pTr27   < >pTr28   < >pTr29   < >pTr30   < >pTr31   < >pTr32   < >pTr33   < >pTr34   < >pTr35   < >pTr36   <
(PID.TID 0000.0001) missingVal=  1.00000000000000E+00 ; nTimRec =   1 , timeList:
(PID.TID 0000.0001)   9.331200000000E+07
(PID.TID 0000.0001) READ_MFLDS_3D_RL: read field: "pTr01   ", #   1 in fldList, rec=   1
(PID.TID 0000.0001)  MDS_READ_FIELD: opening global file: pickup_ptracers.0000025920.data
(PID.TID 0000.0001) READ_MFLDS_3D_RL: read field: "pTr02   ", #   2 in fldList, rec=   2
(PID.TID 0000.0001)  MDS_READ_FIELD: opening global file: pickup_ptracers.0000025920.data
(PID.TID 0000.0001) READ_MFLDS_3D_RL: read field: "pTr03   ", #   3 in fldList, rec=   3
(PID.TID 0000.0001)  MDS_READ_FIELD: opening global file: pickup_ptracers.0000025920.data
(PID.TID 0000.0001) READ_MFLDS_3D_RL: read field: "pTr04   ", #   4 in fldList, rec=   4
(PID.TID 0000.0001)  MDS_READ_FIELD: opening global file: pickup_ptracers.0000025920.data
(PID.TID 0000.0001) READ_MFLDS_3D_RL: read field: "pTr05   ", #   5 in fldList, rec=   5
(PID.TID 0000.0001)  MDS_READ_FIELD: opening global file: pickup_ptracers.0000025920.data
(PID.TID 0000.0001) READ_MFLDS_3D_RL: read field: "pTr06   ", #   6 in fldList, rec=   6
(PID.TID 0000.0001)  MDS_READ_FIELD: opening global file: pickup_ptracers.0000025920.data
(PID.TID 0000.0001) READ_MFLDS_3D_RL: read field: "pTr07   ", #   7 in fldList, rec=   7
(PID.TID 0000.0001)  MDS_READ_FIELD: opening global file: pickup_ptracers.0000025920.data
(PID.TID 0000.0001) READ_MFLDS_3D_RL: read field: "pTr08   ", #   8 in fldList, rec=   8
(PID.TID 0000.0001)  MDS_READ_FIELD: opening global file: pickup_ptracers.0000025920.data
(PID.TID 0000.0001) READ_MFLDS_3D_RL: read field: "pTr09   ", #   9 in fldList, rec=   9
(PID.TID 0000.0001)  MDS_READ_FIELD: opening global file: pickup_ptracers.0000025920.data
(PID.TID 0000.0001) READ_MFLDS_3D_RL: read field: "pTr10   ", #  10 in fldList, rec=  10
(PID.TID 0000.0001)  MDS_READ_FIELD: opening global file: pickup_ptracers.0000025920.data
(PID.TID 0000.0001) READ_MFLDS_3D_RL: read field: "pTr11   ", #  11 in fldList, rec=  11
(PID.TID 0000.0001)  MDS_READ_FIELD: opening global file: pickup_ptracers.0000025920.data
(PID.TID 0000.0001) READ_MFLDS_3D_RL: read field: "pTr12   ", #  12 in fldList, rec=  12
(PID.TID 0000.0001)  MDS_READ_FIELD: opening global file: pickup_ptracers.0000025920.data
(PID.TID 0000.0001) READ_MFLDS_3D_RL: read field: "pTr13   ", #  13 in fldList, rec=  13
(PID.TID 0000.0001)  MDS_READ_FIELD: opening global file: pickup_ptracers.0000025920.data
(PID.TID 0000.0001) READ_MFLDS_3D_RL: read field: "pTr14   ", #  14 in fldList, rec=  14
(PID.TID 0000.0001)  MDS_READ_FIELD: opening global file: pickup_ptracers.0000025920.data
(PID.TID 0000.0001) READ_MFLDS_3D_RL: read field: "pTr15   ", #  15 in fldList, rec=  15
(PID.TID 0000.0001)  MDS_READ_FIELD: opening global file: pickup_ptracers.0000025920.data
(PID.TID 0000.0001) READ_MFLDS_3D_RL: read field: "pTr16   ", #  16 in fldList, rec=  16
(PID.TID 0000.0001)  MDS_READ_FIELD: opening global file: pickup_ptracers.0000025920.data
(PID.TID 0000.0001) READ_MFLDS_3D_RL: read field: "pTr17   ", #  17 in fldList, rec=  17
(PID.TID 0000.0001)  MDS_READ_FIELD: opening global file: pickup_ptracers.0000025920.data
(PID.TID 0000.0001) READ_MFLDS_3D_RL: read field: "pTr18   ", #  18 in fldList, rec=  18
(PID.TID 0000.0001)  MDS_READ_FIELD: opening global file: pickup_ptracers.0000025920.data
(PID.TID 0000.0001) READ_MFLDS_3D_RL: read field: "pTr19   ", #  19 in fldList, rec=  19
(PID.TID 0000.0001)  MDS_READ_FIELD: opening global file: pickup_ptracers.0000025920.data
(PID.TID 0000.0001) READ_MFLDS_3D_RL: read field: "pTr20   ", #  20 in fldList, rec=  20
(PID.TID 0000.0001)  MDS_READ_FIELD: opening global file: pickup_ptracers.0000025920.data
(PID.TID 0000.0001) READ_MFLDS_3D_RL: read field: "pTr21   ", #  21 in fldList, rec=  21
(PID.TID 0000.0001)  MDS_READ_FIELD: opening global file: pickup_ptracers.0000025920.data
(PID.TID 0000.0001) READ_MFLDS_3D_RL: read field: "pTr22   ", #  22 in fldList, rec=  22
(PID.TID 0000.0001)  MDS_READ_FIELD: opening global file: pickup_ptracers.0000025920.data
(PID.TID 0000.0001) READ_MFLDS_3D_RL: read field: "pTr23   ", #  23 in fldList, rec=  23
(PID.TID 0000.0001)  MDS_READ_FIELD: opening global file: pickup_ptracers.0000025920.data
(PID.TID 0000.0001) READ_MFLDS_3D_RL: read field: "pTr24   ", #  24 in fldList, rec=  24
(PID.TID 0000.0001)  MDS_READ_FIELD: opening global file: pickup_ptracers.0000025920.data
(PID.TID 0000.0001) READ_MFLDS_3D_RL: read field: "pTr25   ", #  25 in fldList, rec=  25
(PID.TID 0000.0001)  MDS_READ_FIELD: opening global file: pickup_ptracers.0000025920.data
(PID.TID 0000.0001) READ_MFLDS_3D_RL: read field: "pTr26   ", #  26 in fldList, rec=  26
(PID.TID 0000.0001)  MDS_READ_FIELD: opening global file: pickup_ptracers.0000025920.data
(PID.TID 0000.0001) READ_MFLDS_3D_RL: read field: "pTr27   ", #  27 in fldList, rec=  27
(PID.TID 0000.0001)  MDS_READ_FIELD: opening global file: pickup_ptracers.0000025920.data
(PID.TID 0000.0001) READ_MFLDS_3D_RL: read field: "pTr28   ", #  28 in fldList, rec=  28
(PID.TID 0000.0001)  MDS_READ_FIELD: opening global file: pickup_ptracers.0000025920.data
(PID.TID 0000.0001) READ_MFLDS_3D_RL: read field: "pTr29   ", #  29 in fldList, rec=  29
(PID.TID 0000.0001)  MDS_READ_FIELD: opening global file: pickup_ptracers.0000025920.data
(PID.TID 0000.0001) READ_MFLDS_3D_RL: read field: "pTr30   ", #  30 in fldList, rec=  30
(PID.TID 0000.0001)  MDS_READ_FIELD: opening global file: pickup_ptracers.0000025920.data
(PID.TID 0000.0001) READ_MFLDS_3D_RL: read field: "pTr31   ", #  31 in fldList, rec=  31
(PID.TID 0000.0001)  MDS_READ_FIELD: opening global file: pickup_ptracers.0000025920.data
(PID.TID 0000.0001) READ_MFLDS_3D_RL: read field: "pTr32   ", #  32 in fldList, rec=  32
(PID.TID 0000.0001)  MDS_READ_FIELD: opening global file: pickup_ptracers.0000025920.data
(PID.TID 0000.0001) READ_MFLDS_3D_RL: read field: "pTr33   ", #  33 in fldList, rec=  33
(PID.TID 0000.0001)  MDS_READ_FIELD: opening global file: pickup_ptracers.0000025920.data
(PID.TID 0000.0001) READ_MFLDS_3D_RL: read field: "pTr34   ", #  34 in fldList, rec=  34
(PID.TID 0000.0001)  MDS_READ_FIELD: opening global file: pickup_ptracers.0000025920.data
(PID.TID 0000.0001) READ_MFLDS_3D_RL: read field: "pTr35   ", #  35 in fldList, rec=  35
(PID.TID 0000.0001)  MDS_READ_FIELD: opening global file: pickup_ptracers.0000025920.data
(PID.TID 0000.0001) READ_MFLDS_3D_RL: read field: "pTr36   ", #  36 in fldList, rec=  36
(PID.TID 0000.0001)  MDS_READ_FIELD: opening global file: pickup_ptracers.0000025920.data
(PID.TID 0000.0001) READ_MFLDS_CHECK: - normal end ; reset MFLDS file-name: pickup_ptracers.0000025920
(PID.TID 0000.0001)  MDS_READ_META: opening file: pickup_gud.0000025920.meta
(PID.TID 0000.0001)  nRecords =   1 ; filePrec =  64 ; fileIter =     25920
(PID.TID 0000.0001)     nDims =   3 , dims:
(PID.TID 0000.0001)    1: 360   1 360
(PID.TID 0000.0001)    2: 160   1 160
(PID.TID 0000.0001)    3:  23   1  23
(PID.TID 0000.0001)     nFlds =   1 , nFl3D =   0 , fields:
(PID.TID 0000.0001)  >pH      <
(PID.TID 0000.0001) missingVal=  1.00000000000000E+00 ; nTimRec =   1 , timeList:
(PID.TID 0000.0001)   9.331200000000E+07
(PID.TID 0000.0001) READ_MFLDS_3D_RL: read field: "pH      ", #   1 in fldList, rec=   1
(PID.TID 0000.0001)  MDS_READ_FIELD: opening global file: pickup_gud.0000025920.data
(PID.TID 0000.0001) READ_MFLDS_CHECK: - normal end ; reset MFLDS file-name: pickup_gud.0000025920
(PID.TID 0000.0001) // =======================================================
(PID.TID 0000.0001) // Model current state
(PID.TID 0000.0001) // =======================================================
(PID.TID 0000.0001) 
(PID.TID 0000.0001) // =======================================================
(PID.TID 0000.0001) // Begin MONITOR dynamic field statistics
(PID.TID 0000.0001) // =======================================================
(PID.TID 0000.0001) %MON time_tsnumber                =                     0
(PID.TID 0000.0001) %MON time_secondsf                =   0.0000000000000E+00
(PID.TID 0000.0001) %MON dynstat_eta_max              =   0.0000000000000E+00
(PID.TID 0000.0001) %MON dynstat_eta_min              =   0.0000000000000E+00
(PID.TID 0000.0001) %MON dynstat_eta_mean             =   0.0000000000000E+00
(PID.TID 0000.0001) %MON dynstat_eta_sd               =   0.0000000000000E+00
(PID.TID 0000.0001) %MON dynstat_eta_del2             =   0.0000000000000E+00
(PID.TID 0000.0001) %MON dynstat_uvel_max             =   7.5098115205765E-01
(PID.TID 0000.0001) %MON dynstat_uvel_min             =  -8.5988894104958E-01
(PID.TID 0000.0001) %MON dynstat_uvel_mean            =   2.3572816524444E-03
(PID.TID 0000.0001) %MON dynstat_uvel_sd              =   2.2920832952052E-02
(PID.TID 0000.0001) %MON dynstat_uvel_del2            =   2.5380623508417E-05
(PID.TID 0000.0001) %MON dynstat_vvel_max             =   1.4433979988098E+00
(PID.TID 0000.0001) %MON dynstat_vvel_min             =  -7.9056510329247E-01
(PID.TID 0000.0001) %MON dynstat_vvel_mean            =  -1.9003223157285E-05
(PID.TID 0000.0001) %MON dynstat_vvel_sd              =   1.1606396696780E-02
(PID.TID 0000.0001) %MON dynstat_vvel_del2            =   2.3903080664410E-05
(PID.TID 0000.0001) %MON dynstat_wvel_max             =   4.0098185531362E-04
(PID.TID 0000.0001) %MON dynstat_wvel_min             =  -6.1701978098626E-04
(PID.TID 0000.0001) %MON dynstat_wvel_mean            =   8.7211442136304E-23
(PID.TID 0000.0001) %MON dynstat_wvel_sd              =   1.0036396664253E-05
(PID.TID 0000.0001) %MON dynstat_wvel_del2            =   1.8497991102997E-08
(PID.TID 0000.0001) %MON dynstat_theta_max            =   3.1759957313538E+01
(PID.TID 0000.0001) %MON dynstat_theta_min            =  -2.6781991720200E+00
(PID.TID 0000.0001) %MON dynstat_theta_mean           =   3.6072900423543E+00
(PID.TID 0000.0001) %MON dynstat_theta_sd             =   4.4541205956314E+00
(PID.TID 0000.0001) %MON dynstat_theta_del2           =   3.5727313459859E-04
(PID.TID 0000.0001) %MON dynstat_salt_max             =   3.9536773681641E+01
(PID.TID 0000.0001) %MON dynstat_salt_min             =   2.6413101196289E+01
(PID.TID 0000.0001) %MON dynstat_salt_mean            =   3.4722225910308E+01
(PID.TID 0000.0001) %MON dynstat_salt_sd              =   3.6521486169890E-01
(PID.TID 0000.0001) %MON dynstat_salt_del2            =   6.8647712204606E-05
(PID.TID 0000.0001) %MON dynstat_sst_max              =   3.1759957313538E+01
(PID.TID 0000.0001) %MON dynstat_sst_min              =  -1.9927841424942E+00
(PID.TID 0000.0001) %MON dynstat_sst_mean             =   1.9180627039434E+01
(PID.TID 0000.0001) %MON dynstat_sst_sd               =   9.5507126256379E+00
(PID.TID 0000.0001) %MON dynstat_sst_del2             =   2.1359256876323E-03
(PID.TID 0000.0001) %MON dynstat_sss_max              =   3.9536773681641E+01
(PID.TID 0000.0001) %MON dynstat_sss_min              =   2.6413101196289E+01
(PID.TID 0000.0001) %MON dynstat_sss_mean             =   3.4862233940638E+01
(PID.TID 0000.0001) %MON dynstat_sss_sd               =   1.0826450093342E+00
(PID.TID 0000.0001) %MON dynstat_sss_del2             =   5.9710833084477E-04
(PID.TID 0000.0001) %MON forcing_qnet_max             =   0.0000000000000E+00
(PID.TID 0000.0001) %MON forcing_qnet_min             =   0.0000000000000E+00
(PID.TID 0000.0001) %MON forcing_qnet_mean            =   0.0000000000000E+00
(PID.TID 0000.0001) %MON forcing_qnet_sd              =   0.0000000000000E+00
(PID.TID 0000.0001) %MON forcing_qnet_del2            =   0.0000000000000E+00
(PID.TID 0000.0001) %MON forcing_qsw_max              =   0.0000000000000E+00
(PID.TID 0000.0001) %MON forcing_qsw_min              =   0.0000000000000E+00
(PID.TID 0000.0001) %MON forcing_qsw_mean             =   0.0000000000000E+00
(PID.TID 0000.0001) %MON forcing_qsw_sd               =   0.0000000000000E+00
(PID.TID 0000.0001) %MON forcing_qsw_del2             =   0.0000000000000E+00
(PID.TID 0000.0001) %MON forcing_empmr_max            =   0.0000000000000E+00
(PID.TID 0000.0001) %MON forcing_empmr_min            =   0.0000000000000E+00
(PID.TID 0000.0001) %MON forcing_empmr_mean           =   0.0000000000000E+00
(PID.TID 0000.0001) %MON forcing_empmr_sd             =   0.0000000000000E+00
(PID.TID 0000.0001) %MON forcing_empmr_del2           =   0.0000000000000E+00
(PID.TID 0000.0001) %MON forcing_fu_max               =   0.0000000000000E+00
(PID.TID 0000.0001) %MON forcing_fu_min               =   0.0000000000000E+00
(PID.TID 0000.0001) %MON forcing_fu_mean              =   0.0000000000000E+00
(PID.TID 0000.0001) %MON forcing_fu_sd                =   0.0000000000000E+00
(PID.TID 0000.0001) %MON forcing_fu_del2              =   0.0000000000000E+00
(PID.TID 0000.0001) %MON forcing_fv_max               =   0.0000000000000E+00
(PID.TID 0000.0001) %MON forcing_fv_min               =   0.0000000000000E+00
(PID.TID 0000.0001) %MON forcing_fv_mean              =   0.0000000000000E+00
(PID.TID 0000.0001) %MON forcing_fv_sd                =   0.0000000000000E+00
(PID.TID 0000.0001) %MON forcing_fv_del2              =   0.0000000000000E+00
(PID.TID 0000.0001) %MON trAdv_CFL_u_max              =   0.0000000000000E+00
(PID.TID 0000.0001) %MON trAdv_CFL_v_max              =   0.0000000000000E+00
(PID.TID 0000.0001) %MON trAdv_CFL_w_max              =   0.0000000000000E+00
(PID.TID 0000.0001) %MON advcfl_uvel_max              =   4.6976435003085E-02
(PID.TID 0000.0001) %MON advcfl_vvel_max              =   4.6738180307999E-02
(PID.TID 0000.0001) %MON advcfl_wvel_max              =   6.4157096850180E-02
(PID.TID 0000.0001) %MON advcfl_W_hf_max              =   7.2176733956452E-02
(PID.TID 0000.0001) %MON pe_b_mean                    =   0.0000000000000E+00
(PID.TID 0000.0001) %MON ke_max                       =   8.2762730601179E-01
(PID.TID 0000.0001) %MON ke_mean                      =   3.1922519158178E-04
(PID.TID 0000.0001) %MON ke_vol                       =   1.3258927395736E+18
(PID.TID 0000.0001) %MON vort_r_min                   =  -1.4668072202508E-05
(PID.TID 0000.0001) %MON vort_r_max                   =   2.0065492707289E-05
(PID.TID 0000.0001) %MON vort_a_mean                  =  -2.1443554588588E-05
(PID.TID 0000.0001) %MON vort_a_sd                    =   7.3250404447070E-05
(PID.TID 0000.0001) %MON vort_p_mean                  =  -2.3136237641927E-05
(PID.TID 0000.0001) %MON vort_p_sd                    =   8.5528229257189E-05
(PID.TID 0000.0001) %MON surfExpan_theta_mean         =  -2.8535364658049E-08
(PID.TID 0000.0001) %MON surfExpan_salt_mean          =   6.2495878354357E-09
(PID.TID 0000.0001) // =======================================================
(PID.TID 0000.0001) // End MONITOR dynamic field statistics
(PID.TID 0000.0001) // =======================================================
(PID.TID 0000.0001) // =======================================================
(PID.TID 0000.0001) // Begin MONITOR ptracer field statistics
(PID.TID 0000.0001) // =======================================================
(PID.TID 0000.0001) %MON trcstat_ptracer01_max        =   2.4130817694945E+03
(PID.TID 0000.0001) %MON trcstat_ptracer01_min        =   1.7234907373460E+03
(PID.TID 0000.0001) %MON trcstat_ptracer01_mean       =   2.2529371503610E+03
(PID.TID 0000.0001) %MON trcstat_ptracer01_sd         =   8.1244510259772E+01
(PID.TID 0000.0001) %MON trcstat_ptracer01_del2       =   8.6134861571369E-03
(PID.TID 0000.0001) %MON trcstat_ptracer02_max        =   1.1855391641286E+01
(PID.TID 0000.0001) %MON trcstat_ptracer02_min        =  -5.8225373236299E-08
(PID.TID 0000.0001) %MON trcstat_ptracer02_mean       =   5.5631154599590E-02
(PID.TID 0000.0001) %MON trcstat_ptracer02_sd         =   4.7083980091439E-01
(PID.TID 0000.0001) %MON trcstat_ptracer02_del2       =   3.1960124435505E-04
(PID.TID 0000.0001) %MON trcstat_ptracer03_max        =   6.7976387685121E+00
(PID.TID 0000.0001) %MON trcstat_ptracer03_min        =  -4.1712322435417E-09
(PID.TID 0000.0001) %MON trcstat_ptracer03_mean       =   1.9928493162997E-02
(PID.TID 0000.0001) %MON trcstat_ptracer03_sd         =   1.4775259261271E-01
(PID.TID 0000.0001) %MON trcstat_ptracer03_del2       =   2.1781755993453E-04
(PID.TID 0000.0001) %MON trcstat_ptracer04_max        =   4.4622030209363E+01
(PID.TID 0000.0001) %MON trcstat_ptracer04_min        =  -2.2354478645155E-01
(PID.TID 0000.0001) %MON trcstat_ptracer04_mean       =   3.0605244339452E+01
(PID.TID 0000.0001) %MON trcstat_ptracer04_sd         =   9.0655182264191E+00
(PID.TID 0000.0001) %MON trcstat_ptracer04_del2       =   7.3199693798142E-04
(PID.TID 0000.0001) %MON trcstat_ptracer05_max        =   3.6470125079790E+00
(PID.TID 0000.0001) %MON trcstat_ptracer05_min        =   8.8168925937345E-02
(PID.TID 0000.0001) %MON trcstat_ptracer05_mean       =   2.1762686270059E+00
(PID.TID 0000.0001) %MON trcstat_ptracer05_sd         =   6.2492859686554E-01
(PID.TID 0000.0001) %MON trcstat_ptracer05_del2       =   4.5384008821451E-05
(PID.TID 0000.0001) %MON trcstat_ptracer06_max        =   2.7520681589400E+02
(PID.TID 0000.0001) %MON trcstat_ptracer06_min        =   1.1356889369832E+00
(PID.TID 0000.0001) %MON trcstat_ptracer06_mean       =   9.0930630693433E+01
(PID.TID 0000.0001) %MON trcstat_ptracer06_sd         =   5.1624275069638E+01
(PID.TID 0000.0001) %MON trcstat_ptracer06_del2       =   1.3846326134379E-03
(PID.TID 0000.0001) %MON trcstat_ptracer07_max        =   1.0779658533927E-03
(PID.TID 0000.0001) %MON trcstat_ptracer07_min        =  -2.1824130414770E-06
(PID.TID 0000.0001) %MON trcstat_ptracer07_mean       =   6.3296276686256E-04
(PID.TID 0000.0001) %MON trcstat_ptracer07_sd         =   2.0821238401402E-04
(PID.TID 0000.0001) %MON trcstat_ptracer07_del2       =   1.0215148994730E-07
(PID.TID 0000.0001) %MON trcstat_ptracer08_max        =   2.8166739947425E+02
(PID.TID 0000.0001) %MON trcstat_ptracer08_min        =   8.3002817917551E-08
(PID.TID 0000.0001) %MON trcstat_ptracer08_mean       =   2.2406420926006E-01
(PID.TID 0000.0001) %MON trcstat_ptracer08_sd         =   1.7510789238749E+00
(PID.TID 0000.0001) %MON trcstat_ptracer08_del2       =   2.7366655494863E-03
(PID.TID 0000.0001) %MON trcstat_ptracer09_max        =   3.9089746211803E+01
(PID.TID 0000.0001) %MON trcstat_ptracer09_min        =  -1.0525615577915E-07
(PID.TID 0000.0001) %MON trcstat_ptracer09_mean       =   2.3905494658094E-02
(PID.TID 0000.0001) %MON trcstat_ptracer09_sd         =   1.4696041772812E-01
(PID.TID 0000.0001) %MON trcstat_ptracer09_del2       =   1.2625692559306E-04
(PID.TID 0000.0001) %MON trcstat_ptracer10_max        =   2.3037943991865E+00
(PID.TID 0000.0001) %MON trcstat_ptracer10_min        =   3.4281792842623E-10
(PID.TID 0000.0001) %MON trcstat_ptracer10_mean       =   1.6512039972724E-03
(PID.TID 0000.0001) %MON trcstat_ptracer10_sd         =   1.0439211885998E-02
(PID.TID 0000.0001) %MON trcstat_ptracer10_del2       =   8.9937844422716E-06
(PID.TID 0000.0001) %MON trcstat_ptracer11_max        =   1.1188426890957E-02
(PID.TID 0000.0001) %MON trcstat_ptracer11_min        =   1.8372356224723E-11
(PID.TID 0000.0001) %MON trcstat_ptracer11_mean       =   1.3262175259797E-05
(PID.TID 0000.0001) %MON trcstat_ptracer11_sd         =   8.8407497523191E-05
(PID.TID 0000.0001) %MON trcstat_ptracer11_del2       =   8.8846547902484E-08
(PID.TID 0000.0001) %MON trcstat_ptracer12_max        =   1.0788597671525E+03
(PID.TID 0000.0001) %MON trcstat_ptracer12_min        =   2.3945869280730E-09
(PID.TID 0000.0001) %MON trcstat_ptracer12_mean       =   3.0130945691848E-02
(PID.TID 0000.0001) %MON trcstat_ptracer12_sd         =   1.6482652498402E+00
(PID.TID 0000.0001) %MON trcstat_ptracer12_del2       =   1.5633085009021E-04
(PID.TID 0000.0001) %MON trcstat_ptracer13_max        =   1.5258122556218E+02
(PID.TID 0000.0001) %MON trcstat_ptracer13_min        =   1.6064946626807E-10
(PID.TID 0000.0001) %MON trcstat_ptracer13_mean       =   3.7092275554113E-03
(PID.TID 0000.0001) %MON trcstat_ptracer13_sd         =   2.3420158901181E-01
(PID.TID 0000.0001) %MON trcstat_ptracer13_del2       =   2.2940312049672E-05
(PID.TID 0000.0001) %MON trcstat_ptracer14_max        =   9.1173105954782E+00
(PID.TID 0000.0001) %MON trcstat_ptracer14_min        =   1.2596461639076E-11
(PID.TID 0000.0001) %MON trcstat_ptracer14_mean       =   2.4171700784274E-04
(PID.TID 0000.0001) %MON trcstat_ptracer14_sd         =   1.3793852940199E-02
(PID.TID 0000.0001) %MON trcstat_ptracer14_del2       =   1.3493518992616E-06
(PID.TID 0000.0001) %MON trcstat_ptracer15_max        =   2.5129310391345E+01
(PID.TID 0000.0001) %MON trcstat_ptracer15_min        =  -1.7871618449366E-07
(PID.TID 0000.0001) %MON trcstat_ptracer15_mean       =   1.4890146030755E-02
(PID.TID 0000.0001) %MON trcstat_ptracer15_sd         =   1.1614049737800E-01
(PID.TID 0000.0001) %MON trcstat_ptracer15_del2       =   1.0102989773479E-05
(PID.TID 0000.0001) %MON trcstat_ptracer16_max        =   1.2664788582503E-02
(PID.TID 0000.0001) %MON trcstat_ptracer16_min        =   5.9959482092099E-13
(PID.TID 0000.0001) %MON trcstat_ptracer16_mean       =   1.8100897065899E-06
(PID.TID 0000.0001) %MON trcstat_ptracer16_sd         =   2.4836166673099E-05
(PID.TID 0000.0001) %MON trcstat_ptracer16_del2       =   2.2641246033562E-08
(PID.TID 0000.0001) %MON trcstat_ptracer17_max        =   1.6452903900633E+01
(PID.TID 0000.0001) %MON trcstat_ptracer17_min        =  -5.7823891586816E-08
(PID.TID 0000.0001) %MON trcstat_ptracer17_mean       =   6.2403324196961E-03
(PID.TID 0000.0001) %MON trcstat_ptracer17_sd         =   5.6846638246008E-02
(PID.TID 0000.0001) %MON trcstat_ptracer17_del2       =   1.3470299264614E-05
(PID.TID 0000.0001) %MON trcstat_ptracer18_max        =   2.5684136565364E+03
(PID.TID 0000.0001) %MON trcstat_ptracer18_min        =   2.0131263847349E+03
(PID.TID 0000.0001) %MON trcstat_ptracer18_mean       =   2.3642446494854E+03
(PID.TID 0000.0001) %MON trcstat_ptracer18_sd         =   4.1988959612747E+01
(PID.TID 0000.0001) %MON trcstat_ptracer18_del2       =   4.8561036394149E-03
(PID.TID 0000.0001) %MON trcstat_ptracer19_max        =   4.0710775781599E+02
(PID.TID 0000.0001) %MON trcstat_ptracer19_min        =   2.2548735383577E-05
(PID.TID 0000.0001) %MON trcstat_ptracer19_mean       =   2.0189721352621E+01
(PID.TID 0000.0001) %MON trcstat_ptracer19_sd         =   5.4445919909033E+01
(PID.TID 0000.0001) %MON trcstat_ptracer19_del2       =   1.3885818241791E-02
(PID.TID 0000.0001) %MON trcstat_ptracer20_max        =   9.8871207700209E-02
(PID.TID 0000.0001) %MON trcstat_ptracer20_min        =  -3.9103164438618E-11
(PID.TID 0000.0001) %MON trcstat_ptracer20_mean       =   1.1315326991548E-04
(PID.TID 0000.0001) %MON trcstat_ptracer20_sd         =   3.9881586651365E-04
(PID.TID 0000.0001) %MON trcstat_ptracer20_del2       =   2.4427699745508E-07
(PID.TID 0000.0001) %MON trcstat_ptracer21_max        =   6.5013320811141E+01
(PID.TID 0000.0001) %MON trcstat_ptracer21_min        =  -3.2206067749892E-06
(PID.TID 0000.0001) %MON trcstat_ptracer21_mean       =   1.1458764905741E-01
(PID.TID 0000.0001) %MON trcstat_ptracer21_sd         =   1.0913437255333E+00
(PID.TID 0000.0001) %MON trcstat_ptracer21_del2       =   1.5163668506949E-03
(PID.TID 0000.0001) %MON trcstat_ptracer22_max        =   6.2215968861603E+01
(PID.TID 0000.0001) %MON trcstat_ptracer22_min        =  -2.8597672957971E-05
(PID.TID 0000.0001) %MON trcstat_ptracer22_mean       =   5.6764098178086E-02
(PID.TID 0000.0001) %MON trcstat_ptracer22_sd         =   5.4604340184384E-01
(PID.TID 0000.0001) %MON trcstat_ptracer22_del2       =   9.8577426359629E-04
(PID.TID 0000.0001) %MON trcstat_ptracer23_max        =   4.0331021527435E-11
(PID.TID 0000.0001) %MON trcstat_ptracer23_min        =  -1.0117326753491E-19
(PID.TID 0000.0001) %MON trcstat_ptracer23_mean       =   1.4755999321585E-13
(PID.TID 0000.0001) %MON trcstat_ptracer23_sd         =   5.4507596747429E-13
(PID.TID 0000.0001) %MON trcstat_ptracer23_del2       =   1.7986499964128E-16
(PID.TID 0000.0001) %MON trcstat_ptracer24_max        =   4.0331021527435E-11
(PID.TID 0000.0001) %MON trcstat_ptracer24_min        =  -1.0117326753491E-19
(PID.TID 0000.0001) %MON trcstat_ptracer24_mean       =   1.4755999321585E-13
(PID.TID 0000.0001) %MON trcstat_ptracer24_sd         =   5.4507596747429E-13
(PID.TID 0000.0001) %MON trcstat_ptracer24_del2       =   1.7986499964128E-16
(PID.TID 0000.0001) %MON trcstat_ptracer25_max        =   7.0525013364404E+00
(PID.TID 0000.0001) %MON trcstat_ptracer25_min        =  -6.9524443722701E-07
(PID.TID 0000.0001) %MON trcstat_ptracer25_mean       =   1.3237359674788E-02
(PID.TID 0000.0001) %MON trcstat_ptracer25_sd         =   1.1294303050431E-01
(PID.TID 0000.0001) %MON trcstat_ptracer25_del2       =   1.5522559332340E-04
(PID.TID 0000.0001) %MON trcstat_ptracer26_max        =   6.8649582900390E+00
(PID.TID 0000.0001) %MON trcstat_ptracer26_min        =  -5.1647058151592E-06
(PID.TID 0000.0001) %MON trcstat_ptracer26_mean       =   7.4570106429015E-03
(PID.TID 0000.0001) %MON trcstat_ptracer26_sd         =   6.6622941283721E-02
(PID.TID 0000.0001) %MON trcstat_ptracer26_del2       =   1.0610596002814E-04
(PID.TID 0000.0001) %MON trcstat_ptracer27_max        =   6.0877012279456E-12
(PID.TID 0000.0001) %MON trcstat_ptracer27_min        =  -1.5271436659372E-20
(PID.TID 0000.0001) %MON trcstat_ptracer27_mean       =   2.2273206523644E-14
(PID.TID 0000.0001) %MON trcstat_ptracer27_sd         =   8.2275617726543E-14
(PID.TID 0000.0001) %MON trcstat_ptracer27_del2       =   2.7149433907356E-17
(PID.TID 0000.0001) %MON trcstat_ptracer28_max        =   6.0877012279456E-12
(PID.TID 0000.0001) %MON trcstat_ptracer28_min        =  -1.5271436659372E-20
(PID.TID 0000.0001) %MON trcstat_ptracer28_mean       =   2.2273206523644E-14
(PID.TID 0000.0001) %MON trcstat_ptracer28_sd         =   8.2275617726543E-14
(PID.TID 0000.0001) %MON trcstat_ptracer28_del2       =   2.7149433907356E-17
(PID.TID 0000.0001) %MON trcstat_ptracer29_max        =   3.3109391069669E-01
(PID.TID 0000.0001) %MON trcstat_ptracer29_min        =  -1.6731006934375E-08
(PID.TID 0000.0001) %MON trcstat_ptracer29_mean       =   5.6832156714823E-04
(PID.TID 0000.0001) %MON trcstat_ptracer29_sd         =   5.4491124690197E-03
(PID.TID 0000.0001) %MON trcstat_ptracer29_del2       =   7.1930582764285E-06
(PID.TID 0000.0001) %MON trcstat_ptracer30_max        =   4.8190282609524E-01
(PID.TID 0000.0001) %MON trcstat_ptracer30_min        =  -5.5434588809264E-07
(PID.TID 0000.0001) %MON trcstat_ptracer30_mean       =   8.1686969711211E-04
(PID.TID 0000.0001) %MON trcstat_ptracer30_sd         =   7.5017045906416E-03
(PID.TID 0000.0001) %MON trcstat_ptracer30_del2       =   1.0434570692519E-05
(PID.TID 0000.0001) %MON trcstat_ptracer31_max        =   2.3780082921663E-14
(PID.TID 0000.0001) %MON trcstat_ptracer31_min        =  -5.9654049450673E-23
(PID.TID 0000.0001) %MON trcstat_ptracer31_mean       =   8.7004712982983E-17
(PID.TID 0000.0001) %MON trcstat_ptracer31_sd         =   3.2138913174431E-16
(PID.TID 0000.0001) %MON trcstat_ptracer31_del2       =   1.0605247620061E-19
(PID.TID 0000.0001) %MON trcstat_ptracer32_max        =   2.3780082921663E-14
(PID.TID 0000.0001) %MON trcstat_ptracer32_min        =  -5.9654049450673E-23
(PID.TID 0000.0001) %MON trcstat_ptracer32_mean       =   8.7004712982983E-17
(PID.TID 0000.0001) %MON trcstat_ptracer32_sd         =   3.2138913174431E-16
(PID.TID 0000.0001) %MON trcstat_ptracer32_del2       =   1.0605247620061E-19
(PID.TID 0000.0001) %MON trcstat_ptracer33_max        =   6.9702484320490E-03
(PID.TID 0000.0001) %MON trcstat_ptracer33_min        =  -8.6077882940029E-10
(PID.TID 0000.0001) %MON trcstat_ptracer33_mean       =   8.1634372949009E-06
(PID.TID 0000.0001) %MON trcstat_ptracer33_sd         =   6.5247206491881E-05
(PID.TID 0000.0001) %MON trcstat_ptracer33_del2       =   7.3689101136012E-08
(PID.TID 0000.0001) %MON trcstat_ptracer34_max        =   3.3282188931216E-03
(PID.TID 0000.0001) %MON trcstat_ptracer34_min        =  -3.6381820214083E-09
(PID.TID 0000.0001) %MON trcstat_ptracer34_mean       =   3.4513351531480E-06
(PID.TID 0000.0001) %MON trcstat_ptracer34_sd         =   2.5218263603578E-05
(PID.TID 0000.0001) %MON trcstat_ptracer34_del2       =   4.1105395276035E-08
(PID.TID 0000.0001) %MON trcstat_ptracer35_max        =   4.0331022113944E-14
(PID.TID 0000.0001) %MON trcstat_ptracer35_min        =  -1.0117326762776E-22
(PID.TID 0000.0001) %MON trcstat_ptracer35_mean       =   1.4755999321301E-16
(PID.TID 0000.0001) %MON trcstat_ptracer35_sd         =   5.4507596744257E-16
(PID.TID 0000.0001) %MON trcstat_ptracer35_del2       =   1.7986499959429E-19
(PID.TID 0000.0001) %MON trcstat_ptracer36_max        =   4.0331022113944E-14
(PID.TID 0000.0001) %MON trcstat_ptracer36_min        =  -1.0117326762776E-22
(PID.TID 0000.0001) %MON trcstat_ptracer36_mean       =   1.4755999321301E-16
(PID.TID 0000.0001) %MON trcstat_ptracer36_sd         =   5.4507596744257E-16
(PID.TID 0000.0001) %MON trcstat_ptracer36_del2       =   1.7986499959429E-19
(PID.TID 0000.0001) // =======================================================
(PID.TID 0000.0001) // End MONITOR ptracer field statistics
(PID.TID 0000.0001) // =======================================================
(PID.TID 0000.0001) // =======================================================
(PID.TID 0000.0001) // Begin MONITOR EXF statistics
(PID.TID 0000.0001) // =======================================================
(PID.TID 0000.0001) %MON exf_tsnumber                 =                     0
(PID.TID 0000.0001) %MON exf_time_sec                 =   0.0000000000000E+00
(PID.TID 0000.0001) %MON exf_ustress_max              =   0.0000000000000E+00
(PID.TID 0000.0001) %MON exf_ustress_min              =   0.0000000000000E+00
(PID.TID 0000.0001) %MON exf_ustress_mean             =   0.0000000000000E+00
(PID.TID 0000.0001) %MON exf_ustress_sd               =   0.0000000000000E+00
(PID.TID 0000.0001) %MON exf_ustress_del2             =   0.0000000000000E+00
(PID.TID 0000.0001) %MON exf_vstress_max              =   0.0000000000000E+00
(PID.TID 0000.0001) %MON exf_vstress_min              =   0.0000000000000E+00
(PID.TID 0000.0001) %MON exf_vstress_mean             =   0.0000000000000E+00
(PID.TID 0000.0001) %MON exf_vstress_sd               =   0.0000000000000E+00
(PID.TID 0000.0001) %MON exf_vstress_del2             =   0.0000000000000E+00
(PID.TID 0000.0001) %MON exf_hflux_max                =   0.0000000000000E+00
(PID.TID 0000.0001) %MON exf_hflux_min                =   0.0000000000000E+00
(PID.TID 0000.0001) %MON exf_hflux_mean               =   0.0000000000000E+00
(PID.TID 0000.0001) %MON exf_hflux_sd                 =   0.0000000000000E+00
(PID.TID 0000.0001) %MON exf_hflux_del2               =   0.0000000000000E+00
(PID.TID 0000.0001) %MON exf_sflux_max                =   0.0000000000000E+00
(PID.TID 0000.0001) %MON exf_sflux_min                =   0.0000000000000E+00
(PID.TID 0000.0001) %MON exf_sflux_mean               =   0.0000000000000E+00
(PID.TID 0000.0001) %MON exf_sflux_sd                 =   0.0000000000000E+00
(PID.TID 0000.0001) %MON exf_sflux_del2               =   0.0000000000000E+00
(PID.TID 0000.0001) %MON exf_uwind_max                =   0.0000000000000E+00
(PID.TID 0000.0001) %MON exf_uwind_min                =   0.0000000000000E+00
(PID.TID 0000.0001) %MON exf_uwind_mean               =   0.0000000000000E+00
(PID.TID 0000.0001) %MON exf_uwind_sd                 =   0.0000000000000E+00
(PID.TID 0000.0001) %MON exf_uwind_del2               =   0.0000000000000E+00
(PID.TID 0000.0001) %MON exf_vwind_max                =   0.0000000000000E+00
(PID.TID 0000.0001) %MON exf_vwind_min                =   0.0000000000000E+00
(PID.TID 0000.0001) %MON exf_vwind_mean               =   0.0000000000000E+00
(PID.TID 0000.0001) %MON exf_vwind_sd                 =   0.0000000000000E+00
(PID.TID 0000.0001) %MON exf_vwind_del2               =   0.0000000000000E+00
(PID.TID 0000.0001) %MON exf_wspeed_max               =   0.0000000000000E+00
(PID.TID 0000.0001) %MON exf_wspeed_min               =   0.0000000000000E+00
(PID.TID 0000.0001) %MON exf_wspeed_mean              =   0.0000000000000E+00
(PID.TID 0000.0001) %MON exf_wspeed_sd                =   0.0000000000000E+00
(PID.TID 0000.0001) %MON exf_wspeed_del2              =   0.0000000000000E+00
(PID.TID 0000.0001) %MON exf_evap_max                 =   0.0000000000000E+00
(PID.TID 0000.0001) %MON exf_evap_min                 =   0.0000000000000E+00
(PID.TID 0000.0001) %MON exf_evap_mean                =   0.0000000000000E+00
(PID.TID 0000.0001) %MON exf_evap_sd                  =   0.0000000000000E+00
(PID.TID 0000.0001) %MON exf_evap_del2                =   0.0000000000000E+00
(PID.TID 0000.0001) // =======================================================
(PID.TID 0000.0001) // End MONITOR EXF statistics
(PID.TID 0000.0001) // =======================================================
 EXTERNAL_FIELDS_LOAD, it=         0 : Reading new data, i0,i1=   12    1 (prev=   12    0 )
(PID.TID 0000.0001)  MDS_READ_FIELD: opening global file: input_ecco/ecco_oasim_edp01_below.bin
(PID.TID 0000.0001)  MDS_READ_FIELD: opening global file: input_ecco/ecco_oasim_edp01_below.bin
(PID.TID 0000.0001)  MDS_READ_FIELD: opening global file: input_ecco/ecco_oasim_esp01_below.bin
(PID.TID 0000.0001)  MDS_READ_FIELD: opening global file: input_ecco/ecco_oasim_esp01_below.bin
(PID.TID 0000.0001)  MDS_READ_FIELD: opening global file: input_ecco/ecco_oasim_edp02_below.bin
(PID.TID 0000.0001)  MDS_READ_FIELD: opening global file: input_ecco/ecco_oasim_edp02_below.bin
(PID.TID 0000.0001)  MDS_READ_FIELD: opening global file: input_ecco/ecco_oasim_esp02_below.bin
(PID.TID 0000.0001)  MDS_READ_FIELD: opening global file: input_ecco/ecco_oasim_esp02_below.bin
(PID.TID 0000.0001)  MDS_READ_FIELD: opening global file: input_ecco/ecco_oasim_edp03_below.bin
(PID.TID 0000.0001)  MDS_READ_FIELD: opening global file: input_ecco/ecco_oasim_edp03_below.bin
(PID.TID 0000.0001)  MDS_READ_FIELD: opening global file: input_ecco/ecco_oasim_esp03_below.bin
(PID.TID 0000.0001)  MDS_READ_FIELD: opening global file: input_ecco/ecco_oasim_esp03_below.bin
(PID.TID 0000.0001)  MDS_READ_FIELD: opening global file: input_ecco/ecco_oasim_edp04_below.bin
(PID.TID 0000.0001)  MDS_READ_FIELD: opening global file: input_ecco/ecco_oasim_edp04_below.bin
(PID.TID 0000.0001)  MDS_READ_FIELD: opening global file: input_ecco/ecco_oasim_esp04_below.bin
(PID.TID 0000.0001)  MDS_READ_FIELD: opening global file: input_ecco/ecco_oasim_esp04_below.bin
(PID.TID 0000.0001)  MDS_READ_FIELD: opening global file: input_ecco/ecco_oasim_edp05_below.bin
(PID.TID 0000.0001)  MDS_READ_FIELD: opening global file: input_ecco/ecco_oasim_edp05_below.bin
(PID.TID 0000.0001)  MDS_READ_FIELD: opening global file: input_ecco/ecco_oasim_esp05_below.bin
(PID.TID 0000.0001)  MDS_READ_FIELD: opening global file: input_ecco/ecco_oasim_esp05_below.bin
(PID.TID 0000.0001)  MDS_READ_FIELD: opening global file: input_ecco/ecco_oasim_edp06_below.bin
(PID.TID 0000.0001)  MDS_READ_FIELD: opening global file: input_ecco/ecco_oasim_edp06_below.bin
(PID.TID 0000.0001)  MDS_READ_FIELD: opening global file: input_ecco/ecco_oasim_esp06_below.bin
(PID.TID 0000.0001)  MDS_READ_FIELD: opening global file: input_ecco/ecco_oasim_esp06_below.bin
(PID.TID 0000.0001)  MDS_READ_FIELD: opening global file: input_ecco/ecco_oasim_edp07_below.bin
(PID.TID 0000.0001)  MDS_READ_FIELD: opening global file: input_ecco/ecco_oasim_edp07_below.bin
(PID.TID 0000.0001)  MDS_READ_FIELD: opening global file: input_ecco/ecco_oasim_esp07_below.bin
(PID.TID 0000.0001)  MDS_READ_FIELD: opening global file: input_ecco/ecco_oasim_esp07_below.bin
(PID.TID 0000.0001)  MDS_READ_FIELD: opening global file: input_ecco/ecco_oasim_edp08_below.bin
(PID.TID 0000.0001)  MDS_READ_FIELD: opening global file: input_ecco/ecco_oasim_edp08_below.bin
(PID.TID 0000.0001)  MDS_READ_FIELD: opening global file: input_ecco/ecco_oasim_esp08_below.bin
(PID.TID 0000.0001)  MDS_READ_FIELD: opening global file: input_ecco/ecco_oasim_esp08_below.bin
(PID.TID 0000.0001)  MDS_READ_FIELD: opening global file: input_ecco/ecco_oasim_edp09_below.bin
(PID.TID 0000.0001)  MDS_READ_FIELD: opening global file: input_ecco/ecco_oasim_edp09_below.bin
(PID.TID 0000.0001)  MDS_READ_FIELD: opening global file: input_ecco/ecco_oasim_esp09_below.bin
(PID.TID 0000.0001)  MDS_READ_FIELD: opening global file: input_ecco/ecco_oasim_esp09_below.bin
(PID.TID 0000.0001)  MDS_READ_FIELD: opening global file: input_ecco/ecco_oasim_edp10_below.bin
(PID.TID 0000.0001)  MDS_READ_FIELD: opening global file: input_ecco/ecco_oasim_edp10_below.bin
(PID.TID 0000.0001)  MDS_READ_FIELD: opening global file: input_ecco/ecco_oasim_esp10_below.bin
(PID.TID 0000.0001)  MDS_READ_FIELD: opening global file: input_ecco/ecco_oasim_esp10_below.bin
(PID.TID 0000.0001)  MDS_READ_FIELD: opening global file: input_ecco/ecco_oasim_edp11_below.bin
(PID.TID 0000.0001)  MDS_READ_FIELD: opening global file: input_ecco/ecco_oasim_edp11_below.bin
(PID.TID 0000.0001)  MDS_READ_FIELD: opening global file: input_ecco/ecco_oasim_esp11_below.bin
(PID.TID 0000.0001)  MDS_READ_FIELD: opening global file: input_ecco/ecco_oasim_esp11_below.bin
(PID.TID 0000.0001)  MDS_READ_FIELD: opening global file: input_ecco/ecco_oasim_edp12_below.bin
(PID.TID 0000.0001)  MDS_READ_FIELD: opening global file: input_ecco/ecco_oasim_edp12_below.bin
(PID.TID 0000.0001)  MDS_READ_FIELD: opening global file: input_ecco/ecco_oasim_esp12_below.bin
(PID.TID 0000.0001)  MDS_READ_FIELD: opening global file: input_ecco/ecco_oasim_esp12_below.bin
(PID.TID 0000.0001)  MDS_READ_FIELD: opening global file: input_ecco/ecco_oasim_edp13_below.bin
(PID.TID 0000.0001)  MDS_READ_FIELD: opening global file: input_ecco/ecco_oasim_edp13_below.bin
(PID.TID 0000.0001)  MDS_READ_FIELD: opening global file: input_ecco/ecco_oasim_esp13_below.bin
(PID.TID 0000.0001)  MDS_READ_FIELD: opening global file: input_ecco/ecco_oasim_esp13_below.bin
(PID.TID 0000.0001)  MDS_READ_FIELD: opening global file: input_ecco/mahowald2009_solubile_current_smooth_oce_mth-2d.bin
(PID.TID 0000.0001)  MDS_READ_FIELD: opening global file: input_ecco/mahowald2009_solubile_current_smooth_oce_mth-2d.bin
(PID.TID 0000.0001)  MDS_READ_FIELD: opening global file: eccov3/SIarea.bin
(PID.TID 0000.0001)  MDS_READ_FIELD: opening global file: eccov3/SIarea.bin
(PID.TID 0000.0001)  MDS_READ_FIELD: opening global file: input_ecco/tren_speed_mth-2d.bin
(PID.TID 0000.0001)  MDS_READ_FIELD: opening global file: input_ecco/tren_speed_mth-2d.bin
(PID.TID 0000.0001) // =======================================================
(PID.TID 0000.0001) // Begin MONITOR GUD statistics
(PID.TID 0000.0001) // =======================================================
(PID.TID 0000.0001) %MON gud_tsnumber                 =                     0
(PID.TID 0000.0001) %MON gud_time_sec                 =   0.0000000000000E+00
(PID.TID 0000.0001) %MON gud_OASIMEd01_max            =   2.7646229267120E+00
(PID.TID 0000.0001) %MON gud_OASIMEd01_min            =   2.5806488522093E-37
(PID.TID 0000.0001) %MON gud_OASIMEd01_mean           =   9.5076945363030E-01
(PID.TID 0000.0001) %MON gud_OASIMEd01_sd             =   6.8290127821717E-01
(PID.TID 0000.0001) %MON gud_OASIMEd01_del2           =   2.4629649622882E-03
(PID.TID 0000.0001) %MON gud_OASIMEd02_max            =   7.1684303283691E+00
(PID.TID 0000.0001) %MON gud_OASIMEd02_min            =   5.1612977044186E-37
(PID.TID 0000.0001) %MON gud_OASIMEd02_mean           =   2.4685054228588E+00
(PID.TID 0000.0001) %MON gud_OASIMEd02_sd             =   1.7469589586671E+00
(PID.TID 0000.0001) %MON gud_OASIMEd02_del2           =   6.3553501643951E-03
(PID.TID 0000.0001) %MON gud_OASIMEd03_max            =   8.7451581954956E+00
(PID.TID 0000.0001) %MON gud_OASIMEd03_min            =   5.1612977044186E-37
(PID.TID 0000.0001) %MON gud_OASIMEd03_mean           =   2.9974971180269E+00
(PID.TID 0000.0001) %MON gud_OASIMEd03_sd             =   2.1073022920969E+00
(PID.TID 0000.0001) %MON gud_OASIMEd03_del2           =   7.6894928084215E-03
(PID.TID 0000.0001) %MON gud_OASIMEd04_max            =   9.2580008506775E+00
(PID.TID 0000.0001) %MON gud_OASIMEd04_min            =   5.1612977044186E-37
(PID.TID 0000.0001) %MON gud_OASIMEd04_mean           =   3.1836416803410E+00
(PID.TID 0000.0001) %MON gud_OASIMEd04_sd             =   2.2159237341135E+00
(PID.TID 0000.0001) %MON gud_OASIMEd04_del2           =   8.1343081345692E-03
(PID.TID 0000.0001) %MON gud_OASIMEd05_max            =   9.3324933052063E+00
(PID.TID 0000.0001) %MON gud_OASIMEd05_min            =   5.1612983770419E-37
(PID.TID 0000.0001) %MON gud_OASIMEd05_mean           =   3.2171404970202E+00
(PID.TID 0000.0001) %MON gud_OASIMEd05_sd             =   2.2191218739861E+00
(PID.TID 0000.0001) %MON gud_OASIMEd05_del2           =   8.1906301065398E-03
(PID.TID 0000.0001) %MON gud_OASIMEd06_max            =   9.1638178825378E+00
(PID.TID 0000.0001) %MON gud_OASIMEd06_min            =   5.1612986012496E-37
(PID.TID 0000.0001) %MON gud_OASIMEd06_mean           =   3.1754211081675E+00
(PID.TID 0000.0001) %MON gud_OASIMEd06_sd             =   2.1766620913956E+00
(PID.TID 0000.0001) %MON gud_OASIMEd06_del2           =   8.0639744687833E-03
(PID.TID 0000.0001) %MON gud_OASIMEd07_max            =   9.2930526733398E+00
(PID.TID 0000.0001) %MON gud_OASIMEd07_min            =   5.1612988254574E-37
(PID.TID 0000.0001) %MON gud_OASIMEd07_mean           =   3.2273793307710E+00
(PID.TID 0000.0001) %MON gud_OASIMEd07_sd             =   2.2027847759189E+00
(PID.TID 0000.0001) %MON gud_OASIMEd07_del2           =   8.1803537457749E-03
(PID.TID 0000.0001) %MON gud_OASIMEd08_max            =   9.1989860534668E+00
(PID.TID 0000.0001) %MON gud_OASIMEd08_min            =   5.1612997222884E-37
(PID.TID 0000.0001) %MON gud_OASIMEd08_mean           =   3.1809230355733E+00
(PID.TID 0000.0001) %MON gud_OASIMEd08_sd             =   2.1650491691806E+00
(PID.TID 0000.0001) %MON gud_OASIMEd08_del2           =   8.0513511729991E-03
(PID.TID 0000.0001) %MON gud_OASIMEd09_max            =   8.7414617538452E+00
(PID.TID 0000.0001) %MON gud_OASIMEd09_min            =   5.1613044306512E-37
(PID.TID 0000.0001) %MON gud_OASIMEd09_mean           =   3.0228848412025E+00
(PID.TID 0000.0001) %MON gud_OASIMEd09_sd             =   2.0479954634731E+00
(PID.TID 0000.0001) %MON gud_OASIMEd09_del2           =   7.6394469190651E-03
(PID.TID 0000.0001) %MON gud_OASIMEd10_max            =   8.6742177009583E+00
(PID.TID 0000.0001) %MON gud_OASIMEd10_min            =   5.1613082421830E-37
(PID.TID 0000.0001) %MON gud_OASIMEd10_mean           =   3.0165833224041E+00
(PID.TID 0000.0001) %MON gud_OASIMEd10_sd             =   2.0387917890044E+00
(PID.TID 0000.0001) %MON gud_OASIMEd10_del2           =   7.6136551908912E-03
(PID.TID 0000.0001) %MON gud_OASIMEd11_max            =   8.2051599025726E+00
(PID.TID 0000.0001) %MON gud_OASIMEd11_min            =   5.1613118295071E-37
(PID.TID 0000.0001) %MON gud_OASIMEd11_mean           =   2.8454421981222E+00
(PID.TID 0000.0001) %MON gud_OASIMEd11_sd             =   1.9148210724361E+00
(PID.TID 0000.0001) %MON gud_OASIMEd11_del2           =   7.1707437065308E-03
(PID.TID 0000.0001) %MON gud_OASIMEd12_max            =   7.4854869842529E+00
(PID.TID 0000.0001) %MON gud_OASIMEd12_min            =   5.1613140715847E-37
(PID.TID 0000.0001) %MON gud_OASIMEd12_mean           =   2.5976102720157E+00
(PID.TID 0000.0001) %MON gud_OASIMEd12_sd             =   1.7518365961304E+00
(PID.TID 0000.0001) %MON gud_OASIMEd12_del2           =   6.5468738467826E-03
(PID.TID 0000.0001) %MON gud_OASIMEd13_max            =   3.6984523534775E+00
(PID.TID 0000.0001) %MON gud_OASIMEd13_min            =   5.1613212462328E-37
(PID.TID 0000.0001) %MON gud_OASIMEd13_mean           =   1.2779791858953E+00
(PID.TID 0000.0001) %MON gud_OASIMEd13_sd             =   8.5774356093601E-01
(PID.TID 0000.0001) %MON gud_OASIMEd13_del2           =   3.2163710054720E-03
(PID.TID 0000.0001) %MON gud_OASIMEs01_max            =   2.9259824752808E+00
(PID.TID 0000.0001) %MON gud_OASIMEs01_min            =   4.6923427476717E-37
(PID.TID 0000.0001) %MON gud_OASIMEs01_mean           =   1.9221824112748E+00
(PID.TID 0000.0001) %MON gud_OASIMEs01_sd             =   7.2425882921222E-01
(PID.TID 0000.0001) %MON gud_OASIMEs01_del2           =   4.6544695795222E-03
(PID.TID 0000.0001) %MON gud_OASIMEs02_max            =   6.9807722568512E+00
(PID.TID 0000.0001) %MON gud_OASIMEs02_min            =   9.3846854953434E-37
(PID.TID 0000.0001) %MON gud_OASIMEs02_mean           =   4.5357153573008E+00
(PID.TID 0000.0001) %MON gud_OASIMEs02_sd             =   1.7201778389389E+00
(PID.TID 0000.0001) %MON gud_OASIMEs02_del2           =   1.1007818283139E-02
(PID.TID 0000.0001) %MON gud_OASIMEs03_max            =   8.0272638797760E+00
(PID.TID 0000.0001) %MON gud_OASIMEs03_min            =   9.3846854953434E-37
(PID.TID 0000.0001) %MON gud_OASIMEs03_mean           =   5.1679779946339E+00
(PID.TID 0000.0001) %MON gud_OASIMEs03_sd             =   1.9762166392442E+00
(PID.TID 0000.0001) %MON gud_OASIMEs03_del2           =   1.2529450745276E-02
(PID.TID 0000.0001) %MON gud_OASIMEs04_max            =   8.0648508071899E+00
(PID.TID 0000.0001) %MON gud_OASIMEs04_min            =   9.3846859437589E-37
(PID.TID 0000.0001) %MON gud_OASIMEs04_mean           =   5.1505708720594E+00
(PID.TID 0000.0001) %MON gud_OASIMEs04_sd             =   1.9827386842937E+00
(PID.TID 0000.0001) %MON gud_OASIMEs04_del2           =   1.2509774325386E-02
(PID.TID 0000.0001) %MON gud_OASIMEs05_max            =   7.7766842842102E+00
(PID.TID 0000.0001) %MON gud_OASIMEs05_min            =   9.3846863921744E-37
(PID.TID 0000.0001) %MON gud_OASIMEs05_mean           =   4.9329771120823E+00
(PID.TID 0000.0001) %MON gud_OASIMEs05_sd             =   1.9121043550469E+00
(PID.TID 0000.0001) %MON gud_OASIMEs05_del2           =   1.2010966010595E-02
(PID.TID 0000.0001) %MON gud_OASIMEs06_max            =   7.3734605312347E+00
(PID.TID 0000.0001) %MON gud_OASIMEs06_min            =   9.3846877374210E-37
(PID.TID 0000.0001) %MON gud_OASIMEs06_mean           =   4.6471053584041E+00
(PID.TID 0000.0001) %MON gud_OASIMEs06_sd             =   1.8166714213972E+00
(PID.TID 0000.0001) %MON gud_OASIMEs06_del2           =   1.1333656871719E-02
(PID.TID 0000.0001) %MON gud_OASIMEs07_max            =   7.2594125270844E+00
(PID.TID 0000.0001) %MON gud_OASIMEs07_min            =   9.3846886342520E-37
(PID.TID 0000.0001) %MON gud_OASIMEs07_mean           =   4.5511466070763E+00
(PID.TID 0000.0001) %MON gud_OASIMEs07_sd             =   1.7940483692689E+00
(PID.TID 0000.0001) %MON gud_OASIMEs07_del2           =   1.1114932587276E-02
(PID.TID 0000.0001) %MON gud_OASIMEs08_max            =   7.0184249877930E+00
(PID.TID 0000.0001) %MON gud_OASIMEs08_min            =   9.3846904279140E-37
(PID.TID 0000.0001) %MON gud_OASIMEs08_mean           =   4.3710324453455E+00
(PID.TID 0000.0001) %MON gud_OASIMEs08_sd             =   1.7379357969992E+00
(PID.TID 0000.0001) %MON gud_OASIMEs08_del2           =   1.0693808573015E-02
(PID.TID 0000.0001) %MON gud_OASIMEs09_max            =   6.5693130493164E+00
(PID.TID 0000.0001) %MON gud_OASIMEs09_min            =   9.3846980509777E-37
(PID.TID 0000.0001) %MON gud_OASIMEs09_mean           =   4.0587174598349E+00
(PID.TID 0000.0001) %MON gud_OASIMEs09_sd             =   1.6233177043468E+00
(PID.TID 0000.0001) %MON gud_OASIMEs09_del2           =   9.9558302160209E-03
(PID.TID 0000.0001) %MON gud_OASIMEs10_max            =   6.4144325256348E+00
(PID.TID 0000.0001) %MON gud_OASIMEs10_min            =   9.3847034319638E-37
(PID.TID 0000.0001) %MON gud_OASIMEs10_mean           =   3.9763290481803E+00
(PID.TID 0000.0001) %MON gud_OASIMEs10_sd             =   1.5882320050150E+00
(PID.TID 0000.0001) %MON gud_OASIMEs10_del2           =   9.7394066818040E-03
(PID.TID 0000.0001) %MON gud_OASIMEs11_max            =   6.0378134250641E+00
(PID.TID 0000.0001) %MON gud_OASIMEs11_min            =   9.3847074677034E-37
(PID.TID 0000.0001) %MON gud_OASIMEs11_mean           =   3.7217907162379E+00
(PID.TID 0000.0001) %MON gud_OASIMEs11_sd             =   1.4845070953156E+00
(PID.TID 0000.0001) %MON gud_OASIMEs11_del2           =   9.1188911886077E-03
(PID.TID 0000.0001) %MON gud_OASIMEs12_max            =   5.4185078144073E+00
(PID.TID 0000.0001) %MON gud_OASIMEs12_min            =   9.3847132971050E-37
(PID.TID 0000.0001) %MON gud_OASIMEs12_mean           =   3.3338891763687E+00
(PID.TID 0000.0001) %MON gud_OASIMEs12_sd             =   1.3450475597319E+00
(PID.TID 0000.0001) %MON gud_OASIMEs12_del2           =   8.1723019233905E-03
(PID.TID 0000.0001) %MON gud_OASIMEs13_max            =   2.6722790002823E+00
(PID.TID 0000.0001) %MON gud_OASIMEs13_min            =   9.3847227138306E-37
(PID.TID 0000.0001) %MON gud_OASIMEs13_mean           =   1.6316547917534E+00
(PID.TID 0000.0001) %MON gud_OASIMEs13_sd             =   6.5800521144528E-01
(PID.TID 0000.0001) %MON gud_OASIMEs13_del2           =   4.0069875521977E-03
(PID.TID 0000.0001) %MON gud_surfPAR_max              =   0.0000000000000E+00
(PID.TID 0000.0001) %MON gud_surfPAR_min              =   0.0000000000000E+00
(PID.TID 0000.0001) %MON gud_surfPAR_mean             =   0.0000000000000E+00
(PID.TID 0000.0001) %MON gud_surfPAR_sd               =   0.0000000000000E+00
(PID.TID 0000.0001) %MON gud_surfPAR_del2             =   0.0000000000000E+00
(PID.TID 0000.0001) %MON gud_inputFe_max              =   4.8211757936595E-09
(PID.TID 0000.0001) %MON gud_inputFe_min              =   7.4736967425182E-12
(PID.TID 0000.0001) %MON gud_inputFe_mean             =   4.3463425872102E-10
(PID.TID 0000.0001) %MON gud_inputFe_sd               =   5.1787502361184E-10
(PID.TID 0000.0001) %MON gud_inputFe_del2             =   1.3995522705874E-12
(PID.TID 0000.0001) %MON gud_iceFrac_max              =   1.0000000000000E+00
(PID.TID 0000.0001) %MON gud_iceFrac_min              =   0.0000000000000E+00
(PID.TID 0000.0001) %MON gud_iceFrac_mean             =   6.0783934439122E-03
(PID.TID 0000.0001) %MON gud_iceFrac_sd               =   6.5601747988505E-02
(PID.TID 0000.0001) %MON gud_iceFrac_del2             =   3.5432076776443E-04
(PID.TID 0000.0001) %MON gud_windSpeed_max            =   1.4269700050354E+01
(PID.TID 0000.0001) %MON gud_windSpeed_min            =   2.1539999246597E+00
(PID.TID 0000.0001) %MON gud_windSpeed_mean           =   7.6791324106333E+00
(PID.TID 0000.0001) %MON gud_windSpeed_sd             =   2.3580413511338E+00
(PID.TID 0000.0001) %MON gud_windSpeed_del2           =   1.8892674022104E-02
(PID.TID 0000.0001) %MON gud_atmospCO2_max            =   2.7800000000000E-04
(PID.TID 0000.0001) %MON gud_atmospCO2_min            =   2.7800000000000E-04
(PID.TID 0000.0001) %MON gud_atmospCO2_mean           =   2.7800000000000E-04
(PID.TID 0000.0001) %MON gud_atmospCO2_sd             =   5.4210108624275E-19
(PID.TID 0000.0001) %MON gud_atmospCO2_del2           =   0.0000000000000E+00
(PID.TID 0000.0001) // =======================================================
(PID.TID 0000.0001) // End MONITOR GUD statistics
(PID.TID 0000.0001) // =======================================================
(PID.TID 0000.0001) // =======================================================
(PID.TID 0000.0001) // Begin MONITOR dynamic field statistics
(PID.TID 0000.0001) // =======================================================
(PID.TID 0000.0001) %MON time_tsnumber                =                     1
(PID.TID 0000.0001) %MON time_secondsf                =   3.6000000000000E+03
(PID.TID 0000.0001) %MON dynstat_eta_max              =   0.0000000000000E+00
(PID.TID 0000.0001) %MON dynstat_eta_min              =   0.0000000000000E+00
(PID.TID 0000.0001) %MON dynstat_eta_mean             =   0.0000000000000E+00
(PID.TID 0000.0001) %MON dynstat_eta_sd               =   0.0000000000000E+00
(PID.TID 0000.0001) %MON dynstat_eta_del2             =   0.0000000000000E+00
(PID.TID 0000.0001) %MON dynstat_uvel_max             =   7.6224331557751E-01
(PID.TID 0000.0001) %MON dynstat_uvel_min             =  -8.4551832328240E-01
(PID.TID 0000.0001) %MON dynstat_uvel_mean            =   2.3488510868971E-03
(PID.TID 0000.0001) %MON dynstat_uvel_sd              =   2.2876092244162E-02
(PID.TID 0000.0001) %MON dynstat_uvel_del2            =   2.5345059059713E-05
(PID.TID 0000.0001) %MON dynstat_vvel_max             =   1.3947805960973E+00
(PID.TID 0000.0001) %MON dynstat_vvel_min             =  -7.8304195652405E-01
(PID.TID 0000.0001) %MON dynstat_vvel_mean            =  -1.8357989980419E-05
(PID.TID 0000.0001) %MON dynstat_vvel_sd              =   1.1609716324812E-02
(PID.TID 0000.0001) %MON dynstat_vvel_del2            =   2.3750840681849E-05
(PID.TID 0000.0001) %MON dynstat_wvel_max             =   4.4084640527823E-04
(PID.TID 0000.0001) %MON dynstat_wvel_min             =  -6.2028779939283E-04
(PID.TID 0000.0001) %MON dynstat_wvel_mean            =   2.1006470964876E-14
(PID.TID 0000.0001) %MON dynstat_wvel_sd              =   1.0073724768128E-05
(PID.TID 0000.0001) %MON dynstat_wvel_del2            =   1.8558652944887E-08
(PID.TID 0000.0001) %MON dynstat_theta_max            =   3.1777241945267E+01
(PID.TID 0000.0001) %MON dynstat_theta_min            =  -2.6756563484669E+00
(PID.TID 0000.0001) %MON dynstat_theta_mean           =   3.6071501697263E+00
(PID.TID 0000.0001) %MON dynstat_theta_sd             =   4.4536782937579E+00
(PID.TID 0000.0001) %MON dynstat_theta_del2           =   3.5808986683183E-04
(PID.TID 0000.0001) %MON dynstat_salt_max             =   3.9535755157471E+01
(PID.TID 0000.0001) %MON dynstat_salt_min             =   2.6445370356242E+01
(PID.TID 0000.0001) %MON dynstat_salt_mean            =   3.4722202847010E+01
(PID.TID 0000.0001) %MON dynstat_salt_sd              =   3.6514238740219E-01
(PID.TID 0000.0001) %MON dynstat_salt_del2            =   6.8648688141080E-05
(PID.TID 0000.0001) %MON dynstat_sst_max              =   3.1777241945267E+01
(PID.TID 0000.0001) %MON dynstat_sst_min              =  -1.9920241932074E+00
(PID.TID 0000.0001) %MON dynstat_sst_mean             =   1.9176734034904E+01
(PID.TID 0000.0001) %MON dynstat_sst_sd               =   9.5485408387498E+00
(PID.TID 0000.0001) %MON dynstat_sst_del2             =   2.1406043705423E-03
(PID.TID 0000.0001) %MON dynstat_sss_max              =   3.9535755157471E+01
(PID.TID 0000.0001) %MON dynstat_sss_min              =   2.6445370356242E+01
(PID.TID 0000.0001) %MON dynstat_sss_mean             =   3.4861914001001E+01
(PID.TID 0000.0001) %MON dynstat_sss_sd               =   1.0817272015339E+00
(PID.TID 0000.0001) %MON dynstat_sss_del2             =   5.9486137696509E-04
(PID.TID 0000.0001) %MON forcing_qnet_max             =   0.0000000000000E+00
(PID.TID 0000.0001) %MON forcing_qnet_min             =   0.0000000000000E+00
(PID.TID 0000.0001) %MON forcing_qnet_mean            =   0.0000000000000E+00
(PID.TID 0000.0001) %MON forcing_qnet_sd              =   0.0000000000000E+00
(PID.TID 0000.0001) %MON forcing_qnet_del2            =   0.0000000000000E+00
(PID.TID 0000.0001) %MON forcing_qsw_max              =   0.0000000000000E+00
(PID.TID 0000.0001) %MON forcing_qsw_min              =   0.0000000000000E+00
(PID.TID 0000.0001) %MON forcing_qsw_mean             =   0.0000000000000E+00
(PID.TID 0000.0001) %MON forcing_qsw_sd               =   0.0000000000000E+00
(PID.TID 0000.0001) %MON forcing_qsw_del2             =   0.0000000000000E+00
(PID.TID 0000.0001) %MON forcing_empmr_max            =   0.0000000000000E+00
(PID.TID 0000.0001) %MON forcing_empmr_min            =   0.0000000000000E+00
(PID.TID 0000.0001) %MON forcing_empmr_mean           =   0.0000000000000E+00
(PID.TID 0000.0001) %MON forcing_empmr_sd             =   0.0000000000000E+00
(PID.TID 0000.0001) %MON forcing_empmr_del2           =   0.0000000000000E+00
(PID.TID 0000.0001) %MON forcing_fu_max               =   0.0000000000000E+00
(PID.TID 0000.0001) %MON forcing_fu_min               =   0.0000000000000E+00
(PID.TID 0000.0001) %MON forcing_fu_mean              =   0.0000000000000E+00
(PID.TID 0000.0001) %MON forcing_fu_sd                =   0.0000000000000E+00
(PID.TID 0000.0001) %MON forcing_fu_del2              =   0.0000000000000E+00
(PID.TID 0000.0001) %MON forcing_fv_max               =   0.0000000000000E+00
(PID.TID 0000.0001) %MON forcing_fv_min               =   0.0000000000000E+00
(PID.TID 0000.0001) %MON forcing_fv_mean              =   0.0000000000000E+00
(PID.TID 0000.0001) %MON forcing_fv_sd                =   0.0000000000000E+00
(PID.TID 0000.0001) %MON forcing_fv_del2              =   0.0000000000000E+00
(PID.TID 0000.0001) %MON trAdv_CFL_u_max              =   4.6977031251734E-02
(PID.TID 0000.0001) %MON trAdv_CFL_v_max              =   4.6740553269646E-02
(PID.TID 0000.0001) %MON trAdv_CFL_w_max              =   5.9095785836689E-02
(PID.TID 0000.0001) %MON advcfl_uvel_max              =   4.5656657645442E-02
(PID.TID 0000.0001) %MON advcfl_vvel_max              =   4.5163916705058E-02
(PID.TID 0000.0001) %MON advcfl_wvel_max              =   7.0535424844517E-02
(PID.TID 0000.0001) %MON advcfl_W_hf_max              =   7.9352352950082E-02
(PID.TID 0000.0001) %MON pe_b_mean                    =   0.0000000000000E+00
(PID.TID 0000.0001) %MON ke_max                       =   7.7797004628961E-01
(PID.TID 0000.0001) %MON ke_mean                      =   3.1825877375998E-04
(PID.TID 0000.0001) %MON ke_vol                       =   1.3258927395736E+18
(PID.TID 0000.0001) %MON vort_r_min                   =  -1.4195385114217E-05
(PID.TID 0000.0001) %MON vort_r_max                   =   1.8338859670049E-05
(PID.TID 0000.0001) %MON vort_a_mean                  =  -2.1443554596091E-05
(PID.TID 0000.0001) %MON vort_a_sd                    =   7.3250401833601E-05
(PID.TID 0000.0001) %MON vort_p_mean                  =  -2.3136237650023E-05
(PID.TID 0000.0001) %MON vort_p_sd                    =   8.5528208948773E-05
(PID.TID 0000.0001) %MON surfExpan_theta_mean         =  -3.7435462076380E-08
(PID.TID 0000.0001) %MON surfExpan_salt_mean          =   6.4714748146837E-09
(PID.TID 0000.0001) // =======================================================
(PID.TID 0000.0001) // End MONITOR dynamic field statistics
(PID.TID 0000.0001) // =======================================================
(PID.TID 0000.0001) // =======================================================
(PID.TID 0000.0001) // Begin MONITOR ptracer field statistics
(PID.TID 0000.0001) // =======================================================
(PID.TID 0000.0001) %MON trcstat_ptracer01_max        =   2.4130820844853E+03
(PID.TID 0000.0001) %MON trcstat_ptracer01_min        =   1.7239041718666E+03
(PID.TID 0000.0001) %MON trcstat_ptracer01_mean       =   2.2529366343206E+03
(PID.TID 0000.0001) %MON trcstat_ptracer01_sd         =   8.1245542827393E+01
(PID.TID 0000.0001) %MON trcstat_ptracer01_del2       =   8.6611491142718E-03
(PID.TID 0000.0001) %MON trcstat_ptracer02_max        =   1.1855130328175E+01
(PID.TID 0000.0001) %MON trcstat_ptracer02_min        =  -5.8220194915729E-08
(PID.TID 0000.0001) %MON trcstat_ptracer02_mean       =   5.5641697772517E-02
(PID.TID 0000.0001) %MON trcstat_ptracer02_sd         =   4.7082920169100E-01
(PID.TID 0000.0001) %MON trcstat_ptracer02_del2       =   3.1971923583614E-04
(PID.TID 0000.0001) %MON trcstat_ptracer03_max        =   6.7762050225578E+00
(PID.TID 0000.0001) %MON trcstat_ptracer03_min        =  -2.7569714152793E-09
(PID.TID 0000.0001) %MON trcstat_ptracer03_mean       =   1.9927283409675E-02
(PID.TID 0000.0001) %MON trcstat_ptracer03_sd         =   1.4769542209781E-01
(PID.TID 0000.0001) %MON trcstat_ptracer03_del2       =   2.1733984307199E-04
(PID.TID 0000.0001) %MON trcstat_ptracer04_max        =   4.4621986947968E+01
(PID.TID 0000.0001) %MON trcstat_ptracer04_min        =  -4.0721338620637E-01
(PID.TID 0000.0001) %MON trcstat_ptracer04_mean       =   3.0604531652337E+01
(PID.TID 0000.0001) %MON trcstat_ptracer04_sd         =   9.0670420765420E+00
(PID.TID 0000.0001) %MON trcstat_ptracer04_del2       =   7.3719556709119E-04
(PID.TID 0000.0001) %MON trcstat_ptracer05_max        =   3.6470161180911E+00
(PID.TID 0000.0001) %MON trcstat_ptracer05_min        =   8.8169733218372E-02
(PID.TID 0000.0001) %MON trcstat_ptracer05_mean       =   2.1762671877471E+00
(PID.TID 0000.0001) %MON trcstat_ptracer05_sd         =   6.2492912561252E-01
(PID.TID 0000.0001) %MON trcstat_ptracer05_del2       =   4.5577734366217E-05
(PID.TID 0000.0001) %MON trcstat_ptracer06_max        =   2.7520869499875E+02
(PID.TID 0000.0001) %MON trcstat_ptracer06_min        =   1.1356974462823E+00
(PID.TID 0000.0001) %MON trcstat_ptracer06_mean       =   9.0930631840726E+01
(PID.TID 0000.0001) %MON trcstat_ptracer06_sd         =   5.1624252069918E+01
(PID.TID 0000.0001) %MON trcstat_ptracer06_del2       =   1.3864768922232E-03
(PID.TID 0000.0001) %MON trcstat_ptracer07_max        =   1.0779427728851E-03
(PID.TID 0000.0001) %MON trcstat_ptracer07_min        =  -4.3582181654921E-06
(PID.TID 0000.0001) %MON trcstat_ptracer07_mean       =   6.3295397030031E-04
(PID.TID 0000.0001) %MON trcstat_ptracer07_sd         =   2.0821690566278E-04
(PID.TID 0000.0001) %MON trcstat_ptracer07_del2       =   1.0241478786057E-07
(PID.TID 0000.0001) %MON trcstat_ptracer08_max        =   2.8139587385028E+02
(PID.TID 0000.0001) %MON trcstat_ptracer08_min        =   9.2658353274904E-08
(PID.TID 0000.0001) %MON trcstat_ptracer08_mean       =   2.2605791741566E-01
(PID.TID 0000.0001) %MON trcstat_ptracer08_sd         =   1.7708556639516E+00
(PID.TID 0000.0001) %MON trcstat_ptracer08_del2       =   2.8288366225714E-03
(PID.TID 0000.0001) %MON trcstat_ptracer09_max        =   3.9089653450466E+01
(PID.TID 0000.0001) %MON trcstat_ptracer09_min        =   2.5127125512363E-09
(PID.TID 0000.0001) %MON trcstat_ptracer09_mean       =   2.3905899476820E-02
(PID.TID 0000.0001) %MON trcstat_ptracer09_sd         =   1.4693193402953E-01
(PID.TID 0000.0001) %MON trcstat_ptracer09_del2       =   1.2669288354700E-04
(PID.TID 0000.0001) %MON trcstat_ptracer10_max        =   2.3037889526735E+00
(PID.TID 0000.0001) %MON trcstat_ptracer10_min        =   3.4034140056618E-10
(PID.TID 0000.0001) %MON trcstat_ptracer10_mean       =   1.6512886389672E-03
(PID.TID 0000.0001) %MON trcstat_ptracer10_sd         =   1.0437875708259E-02
(PID.TID 0000.0001) %MON trcstat_ptracer10_del2       =   9.0230247730785E-06
(PID.TID 0000.0001) %MON trcstat_ptracer11_max        =   1.1185825296562E-02
(PID.TID 0000.0001) %MON trcstat_ptracer11_min        =   1.8294196017723E-11
(PID.TID 0000.0001) %MON trcstat_ptracer11_mean       =   1.3262299448397E-05
(PID.TID 0000.0001) %MON trcstat_ptracer11_sd         =   8.8391716165463E-05
(PID.TID 0000.0001) %MON trcstat_ptracer11_del2       =   8.8964324098017E-08
(PID.TID 0000.0001) %MON trcstat_ptracer12_max        =   1.0788632624891E+03
(PID.TID 0000.0001) %MON trcstat_ptracer12_min        =   2.4762065382076E-09
(PID.TID 0000.0001) %MON trcstat_ptracer12_mean       =   3.0130852530746E-02
(PID.TID 0000.0001) %MON trcstat_ptracer12_sd         =   1.6482592477547E+00
(PID.TID 0000.0001) %MON trcstat_ptracer12_del2       =   1.5603573126154E-04
(PID.TID 0000.0001) %MON trcstat_ptracer13_max        =   1.5258168073762E+02
(PID.TID 0000.0001) %MON trcstat_ptracer13_min        =   1.6682394100155E-10
(PID.TID 0000.0001) %MON trcstat_ptracer13_mean       =   3.7092536066758E-03
(PID.TID 0000.0001) %MON trcstat_ptracer13_sd         =   2.3420056818631E-01
(PID.TID 0000.0001) %MON trcstat_ptracer13_del2       =   2.2885977908341E-05
(PID.TID 0000.0001) %MON trcstat_ptracer14_max        =   9.1173516530045E+00
(PID.TID 0000.0001) %MON trcstat_ptracer14_min        =   1.2991940903999E-11
(PID.TID 0000.0001) %MON trcstat_ptracer14_mean       =   2.4172506727200E-04
(PID.TID 0000.0001) %MON trcstat_ptracer14_sd         =   1.3793812585759E-02
(PID.TID 0000.0001) %MON trcstat_ptracer14_del2       =   1.3461428279137E-06
(PID.TID 0000.0001) %MON trcstat_ptracer15_max        =   2.5127269784075E+01
(PID.TID 0000.0001) %MON trcstat_ptracer15_min        =  -2.2462573268081E-08
(PID.TID 0000.0001) %MON trcstat_ptracer15_mean       =   1.4888895161676E-02
(PID.TID 0000.0001) %MON trcstat_ptracer15_sd         =   1.1613266986571E-01
(PID.TID 0000.0001) %MON trcstat_ptracer15_del2       =   1.0100483142896E-05
(PID.TID 0000.0001) %MON trcstat_ptracer16_max        =   1.2664985010599E-02
(PID.TID 0000.0001) %MON trcstat_ptracer16_min        =   6.1945716529271E-13
(PID.TID 0000.0001) %MON trcstat_ptracer16_mean       =   1.8100981674703E-06
(PID.TID 0000.0001) %MON trcstat_ptracer16_sd         =   2.4833613456207E-05
(PID.TID 0000.0001) %MON trcstat_ptracer16_del2       =   2.2587832419385E-08
(PID.TID 0000.0001) %MON trcstat_ptracer17_max        =   1.6451307645236E+01
(PID.TID 0000.0001) %MON trcstat_ptracer17_min        =  -9.1529585559962E-10
(PID.TID 0000.0001) %MON trcstat_ptracer17_mean       =   6.2394651971360E-03
(PID.TID 0000.0001) %MON trcstat_ptracer17_sd         =   5.6839288998437E-02
(PID.TID 0000.0001) %MON trcstat_ptracer17_del2       =   1.3444463425145E-05
(PID.TID 0000.0001) %MON trcstat_ptracer18_max        =   2.5684151660969E+03
(PID.TID 0000.0001) %MON trcstat_ptracer18_min        =   2.0135670312562E+03
(PID.TID 0000.0001) %MON trcstat_ptracer18_mean       =   2.3642453716005E+03
(PID.TID 0000.0001) %MON trcstat_ptracer18_sd         =   4.1988103034528E+01
(PID.TID 0000.0001) %MON trcstat_ptracer18_del2       =   4.8698578174610E-03
(PID.TID 0000.0001) %MON trcstat_ptracer19_max        =   4.0715662356044E+02
(PID.TID 0000.0001) %MON trcstat_ptracer19_min        =   2.3635654937036E-05
(PID.TID 0000.0001) %MON trcstat_ptracer19_mean       =   2.0190158324306E+01
(PID.TID 0000.0001) %MON trcstat_ptracer19_sd         =   5.4445927491628E+01
(PID.TID 0000.0001) %MON trcstat_ptracer19_del2       =   1.3940410667878E-02
(PID.TID 0000.0001) %MON trcstat_ptracer20_max        =   9.8870994033972E-02
(PID.TID 0000.0001) %MON trcstat_ptracer20_min        =  -3.4945158253279E-11
(PID.TID 0000.0001) %MON trcstat_ptracer20_mean       =   1.1314370083014E-04
(PID.TID 0000.0001) %MON trcstat_ptracer20_sd         =   3.9879072565957E-04
(PID.TID 0000.0001) %MON trcstat_ptracer20_del2       =   2.4457092406112E-07
(PID.TID 0000.0001) %MON trcstat_ptracer21_max        =   6.5530379426430E+01
(PID.TID 0000.0001) %MON trcstat_ptracer21_min        =  -2.6727479245784E-06
(PID.TID 0000.0001) %MON trcstat_ptracer21_mean       =   1.1359096162108E-01
(PID.TID 0000.0001) %MON trcstat_ptracer21_sd         =   1.0796840052728E+00
(PID.TID 0000.0001) %MON trcstat_ptracer21_del2       =   1.5374526108903E-03
(PID.TID 0000.0001) %MON trcstat_ptracer22_max        =   6.2137079616303E+01
(PID.TID 0000.0001) %MON trcstat_ptracer22_min        =  -3.2175628901335E-05
(PID.TID 0000.0001) %MON trcstat_ptracer22_mean       =   5.6230673563374E-02
(PID.TID 0000.0001) %MON trcstat_ptracer22_sd         =   5.3941896520646E-01
(PID.TID 0000.0001) %MON trcstat_ptracer22_del2       =   1.0103493390247E-03
(PID.TID 0000.0001) %MON trcstat_ptracer23_max        =   4.0301983191929E-11
(PID.TID 0000.0001) %MON trcstat_ptracer23_min        =  -9.9905701787901E-20
(PID.TID 0000.0001) %MON trcstat_ptracer23_mean       =   1.4745344464265E-13
(PID.TID 0000.0001) %MON trcstat_ptracer23_sd         =   5.4467332964706E-13
(PID.TID 0000.0001) %MON trcstat_ptracer23_del2       =   1.7979135674456E-16
(PID.TID 0000.0001) %MON trcstat_ptracer24_max        =   4.0301983191929E-11
(PID.TID 0000.0001) %MON trcstat_ptracer24_min        =  -9.9905701787901E-20
(PID.TID 0000.0001) %MON trcstat_ptracer24_mean       =   1.4745344464265E-13
(PID.TID 0000.0001) %MON trcstat_ptracer24_sd         =   5.4467332964706E-13
(PID.TID 0000.0001) %MON trcstat_ptracer24_del2       =   1.7979135674456E-16
(PID.TID 0000.0001) %MON trcstat_ptracer25_max        =   7.0208045735713E+00
(PID.TID 0000.0001) %MON trcstat_ptracer25_min        =  -6.0166347348685E-07
(PID.TID 0000.0001) %MON trcstat_ptracer25_mean       =   1.3640929641573E-02
(PID.TID 0000.0001) %MON trcstat_ptracer25_sd         =   1.1682852538901E-01
(PID.TID 0000.0001) %MON trcstat_ptracer25_del2       =   1.6015904552274E-04
(PID.TID 0000.0001) %MON trcstat_ptracer26_max        =   7.4545524191737E+00
(PID.TID 0000.0001) %MON trcstat_ptracer26_min        =  -8.9254714276641E-06
(PID.TID 0000.0001) %MON trcstat_ptracer26_mean       =   7.7507569159906E-03
(PID.TID 0000.0001) %MON trcstat_ptracer26_sd         =   7.0701260960790E-02
(PID.TID 0000.0001) %MON trcstat_ptracer26_del2       =   1.1198654426685E-04
(PID.TID 0000.0001) %MON trcstat_ptracer27_max        =   6.0833180830606E-12
(PID.TID 0000.0001) %MON trcstat_ptracer27_min        =  -1.5080105980442E-20
(PID.TID 0000.0001) %MON trcstat_ptracer27_mean       =   2.2257123720142E-14
(PID.TID 0000.0001) %MON trcstat_ptracer27_sd         =   8.2214842205456E-14
(PID.TID 0000.0001) %MON trcstat_ptracer27_del2       =   2.7138317998405E-17
(PID.TID 0000.0001) %MON trcstat_ptracer28_max        =   6.0833180830606E-12
(PID.TID 0000.0001) %MON trcstat_ptracer28_min        =  -1.5080105980442E-20
(PID.TID 0000.0001) %MON trcstat_ptracer28_mean       =   2.2257123720142E-14
(PID.TID 0000.0001) %MON trcstat_ptracer28_sd         =   8.2214842205456E-14
(PID.TID 0000.0001) %MON trcstat_ptracer28_del2       =   2.7138317998405E-17
(PID.TID 0000.0001) %MON trcstat_ptracer29_max        =   3.3107976151579E-01
(PID.TID 0000.0001) %MON trcstat_ptracer29_min        =  -1.3898943552874E-08
(PID.TID 0000.0001) %MON trcstat_ptracer29_mean       =   5.6937348309467E-04
(PID.TID 0000.0001) %MON trcstat_ptracer29_sd         =   5.4546543096786E-03
(PID.TID 0000.0001) %MON trcstat_ptracer29_del2       =   7.2301629666668E-06
(PID.TID 0000.0001) %MON trcstat_ptracer30_max        =   4.8205614436494E-01
(PID.TID 0000.0001) %MON trcstat_ptracer30_min        =  -6.2435806906358E-07
(PID.TID 0000.0001) %MON trcstat_ptracer30_mean       =   8.1716890682954E-04
(PID.TID 0000.0001) %MON trcstat_ptracer30_sd         =   7.5025093675122E-03
(PID.TID 0000.0001) %MON trcstat_ptracer30_del2       =   1.0489601672286E-05
(PID.TID 0000.0001) %MON trcstat_ptracer31_max        =   2.3762961261955E-14
(PID.TID 0000.0001) %MON trcstat_ptracer31_min        =  -5.8906663986100E-23
(PID.TID 0000.0001) %MON trcstat_ptracer31_mean       =   8.6941889531805E-17
(PID.TID 0000.0001) %MON trcstat_ptracer31_sd         =   3.2115172736506E-16
(PID.TID 0000.0001) %MON trcstat_ptracer31_del2       =   1.0600905468127E-19
(PID.TID 0000.0001) %MON trcstat_ptracer32_max        =   2.3762961261955E-14
(PID.TID 0000.0001) %MON trcstat_ptracer32_min        =  -5.8906663986100E-23
(PID.TID 0000.0001) %MON trcstat_ptracer32_mean       =   8.6941889531805E-17
(PID.TID 0000.0001) %MON trcstat_ptracer32_sd         =   3.2115172736506E-16
(PID.TID 0000.0001) %MON trcstat_ptracer32_del2       =   1.0600905468127E-19
(PID.TID 0000.0001) %MON trcstat_ptracer33_max        =   6.9724409306988E-03
(PID.TID 0000.0001) %MON trcstat_ptracer33_min        =  -7.7989623172508E-10
(PID.TID 0000.0001) %MON trcstat_ptracer33_mean       =   8.1712495341797E-06
(PID.TID 0000.0001) %MON trcstat_ptracer33_sd         =   6.5282443119899E-05
(PID.TID 0000.0001) %MON trcstat_ptracer33_del2       =   7.3807548741709E-08
(PID.TID 0000.0001) %MON trcstat_ptracer34_max        =   3.3244278027605E-03
(PID.TID 0000.0001) %MON trcstat_ptracer34_min        =  -1.0544143169221E-08
(PID.TID 0000.0001) %MON trcstat_ptracer34_mean       =   3.4529607861572E-06
(PID.TID 0000.0001) %MON trcstat_ptracer34_sd         =   2.5220619275385E-05
(PID.TID 0000.0001) %MON trcstat_ptracer34_del2       =   4.1151329286807E-08
(PID.TID 0000.0001) %MON trcstat_ptracer35_max        =   4.0301983778016E-14
(PID.TID 0000.0001) %MON trcstat_ptracer35_min        =  -9.9905701881147E-23
(PID.TID 0000.0001) %MON trcstat_ptracer35_mean       =   1.4745344463981E-16
(PID.TID 0000.0001) %MON trcstat_ptracer35_sd         =   5.4467332961537E-16
(PID.TID 0000.0001) %MON trcstat_ptracer35_del2       =   1.7979135669757E-19
(PID.TID 0000.0001) %MON trcstat_ptracer36_max        =   4.0301983778016E-14
(PID.TID 0000.0001) %MON trcstat_ptracer36_min        =  -9.9905701881147E-23
(PID.TID 0000.0001) %MON trcstat_ptracer36_mean       =   1.4745344463981E-16
(PID.TID 0000.0001) %MON trcstat_ptracer36_sd         =   5.4467332961537E-16
(PID.TID 0000.0001) %MON trcstat_ptracer36_del2       =   1.7979135669757E-19
(PID.TID 0000.0001) // =======================================================
(PID.TID 0000.0001) // End MONITOR ptracer field statistics
(PID.TID 0000.0001) // =======================================================
 Computing Diagnostic #    183  TRAC01       Counter:       1   Parms: SMR     MR      
 Computing Diagnostic #    198  TRAC02       Counter:       1   Parms: SMR     MR      
 Computing Diagnostic #    213  TRAC03       Counter:       1   Parms: SMR     MR      
 Computing Diagnostic #    228  TRAC04       Counter:       1   Parms: SMR     MR      
 Computing Diagnostic #    243  TRAC05       Counter:       1   Parms: SMR     MR      
 Computing Diagnostic #    258  TRAC06       Counter:       1   Parms: SMR     MR      
 Computing Diagnostic #    273  TRAC07       Counter:       1   Parms: SMR     MR      
 Computing Diagnostic #    288  TRAC08       Counter:       1   Parms: SMR     MR      
 Computing Diagnostic #    303  TRAC09       Counter:       1   Parms: SMR     MR      
 Computing Diagnostic #    318  TRAC10       Counter:       1   Parms: SMR     MR      
 Computing Diagnostic #    333  TRAC11       Counter:       1   Parms: SMR     MR      
 Computing Diagnostic #    348  TRAC12       Counter:       1   Parms: SMR     MR      
 Computing Diagnostic #    363  TRAC13       Counter:       1   Parms: SMR     MR      
 Computing Diagnostic #    378  TRAC14       Counter:       1   Parms: SMR     MR      
 Computing Diagnostic #    393  TRAC15       Counter:       1   Parms: SMR     MR      
 Computing Diagnostic #    408  TRAC16       Counter:       1   Parms: SMR     MR      
 Computing Diagnostic #    423  TRAC17       Counter:       1   Parms: SMR     MR      
 Computing Diagnostic #    438  TRAC18       Counter:       1   Parms: SMR     MR      
 Computing Diagnostic #    453  TRAC19       Counter:       1   Parms: SMR     MR      
 Computing Diagnostic #    468  TRAC20       Counter:       1   Parms: SMR     MR      
 Computing Diagnostic #    483  TRAC21       Counter:       1   Parms: SMR     MR      
 Computing Diagnostic #    498  TRAC22       Counter:       1   Parms: SMR     MR      
 Computing Diagnostic #    513  TRAC23       Counter:       1   Parms: SMR     MR      
 Computing Diagnostic #    528  TRAC24       Counter:       1   Parms: SMR     MR      
 Computing Diagnostic #    543  TRAC25       Counter:       1   Parms: SMR     MR      
 Computing Diagnostic #    558  TRAC26       Counter:       1   Parms: SMR     MR      
 Computing Diagnostic #    573  TRAC27       Counter:       1   Parms: SMR     MR      
 Computing Diagnostic #    588  TRAC28       Counter:       1   Parms: SMR     MR      
 Computing Diagnostic #    603  TRAC29       Counter:       1   Parms: SMR     MR      
 Computing Diagnostic #    618  TRAC30       Counter:       1   Parms: SMR     MR      
 Computing Diagnostic #    633  TRAC31       Counter:       1   Parms: SMR     MR      
 Computing Diagnostic #    648  TRAC32       Counter:       1   Parms: SMR     MR      
 Computing Diagnostic #    663  TRAC33       Counter:       1   Parms: SMR     MR      
 Computing Diagnostic #    678  TRAC34       Counter:       1   Parms: SMR     MR      
 Computing Diagnostic #    693  TRAC35       Counter:       1   Parms: SMR     MR      
 Computing Diagnostic #    708  TRAC36       Counter:       1   Parms: SMR     MR      
 Computing Diagnostic #    990  PAR          Counter:       1   Parms: SM P    MR      
 Computing Diagnostic #    724  PP           Counter:       1   Parms: SM P    MR      
 Computing Diagnostic #    725  Nfix         Counter:       1   Parms: SM P    MR      
 Computing Diagnostic #    726  Denit        Counter:       1   Parms: SM P    MR      
 Computing Diagnostic #   1035  pH           Counter:       1   Parms: SM      MR      
 Computing Diagnostic #   1036  pCO2         Counter:       1   Parms: SM P    MR      
 Computing Diagnostic #    728  PC0001       Counter:       1   Parms: SM P    MR      
 Computing Diagnostic #    727  PChl0001     Counter:       1   Parms: SM P    MR      
 Computing Diagnostic #    729  VN0001       Counter:       1   Parms: SM P    MR      
 Computing Diagnostic #    730  MODE0001     Counter:       1   Parms: SM P    MR      
 Computing Diagnostic #    731  Fe_C0001     Counter:       1   Parms: SM P    MR      
 Computing Diagnostic #    732  exQc0001     Counter:       1   Parms: SM P    MR      
 Computing Diagnostic #    733  PCg0001      Counter:       1   Parms: SM P    MR      
 Computing Diagnostic #    734  CChl0001     Counter:       1   Parms: SM P    MR      
 Computing Diagnostic #    735  NChl0001     Counter:       1   Parms: SM P    MR      
 Computing Diagnostic #    736  NPho0001     Counter:       1   Parms: SM P    MR      
 Computing Diagnostic #    737  NSyn0001     Counter:       1   Parms: SM P    MR      
 Computing Diagnostic #    738  NPrn0001     Counter:       1   Parms: SM P    MR      
 Computing Diagnostic #    739  NRNA0001     Counter:       1   Parms: SM P    MR      
 Computing Diagnostic #    740  NDNA0001     Counter:       1   Parms: SM P    MR      
 Computing Diagnostic #    741  NSTO0001     Counter:       1   Parms: SM P    MR      
 Computing Diagnostic #    742  NEXC0001     Counter:       1   Parms: SM P    MR      
 Computing Diagnostic #    743  PRNA0001     Counter:       1   Parms: SM P    MR      
 Computing Diagnostic #    744  PDNA0001     Counter:       1   Parms: SM P    MR      
 Computing Diagnostic #    745  PTHY0001     Counter:       1   Parms: SM P    MR      
 Computing Diagnostic #    746  PCON0001     Counter:       1   Parms: SM P    MR      
 Computing Diagnostic #    747  PSTO0001     Counter:       1   Parms: SM P    MR      
 Computing Diagnostic #    748  PEXC0001     Counter:       1   Parms: SM P    MR      
 Computing Diagnostic #    749  FPHO0001     Counter:       1   Parms: SM P    MR      
 Computing Diagnostic #    750  FSTO0001     Counter:       1   Parms: SM P    MR      
 Computing Diagnostic #    751  FEXC0001     Counter:       1   Parms: SM P    MR      
 Computing Diagnostic #    759  CChl0002     Counter:       1   Parms: SM P    MR      
 Computing Diagnostic #    760  NChl0002     Counter:       1   Parms: SM P    MR      
 Computing Diagnostic #    761  NPho0002     Counter:       1   Parms: SM P    MR      
 Computing Diagnostic #    762  NSyn0002     Counter:       1   Parms: SM P    MR      
 Computing Diagnostic #    763  NPrn0002     Counter:       1   Parms: SM P    MR      
 Computing Diagnostic #    764  NRNA0002     Counter:       1   Parms: SM P    MR      
 Computing Diagnostic #    765  NDNA0002     Counter:       1   Parms: SM P    MR      
 Computing Diagnostic #    766  NSTO0002     Counter:       1   Parms: SM P    MR      
 Computing Diagnostic #    767  NEXC0002     Counter:       1   Parms: SM P    MR      
 Computing Diagnostic #    768  PRNA0002     Counter:       1   Parms: SM P    MR      
 Computing Diagnostic #    769  PDNA0002     Counter:       1   Parms: SM P    MR      
 Computing Diagnostic #    770  PTHY0002     Counter:       1   Parms: SM P    MR      
 Computing Diagnostic #    771  PCON0002     Counter:       1   Parms: SM P    MR      
 Computing Diagnostic #    772  PSTO0002     Counter:       1   Parms: SM P    MR      
 Computing Diagnostic #    773  PEXC0002     Counter:       1   Parms: SM P    MR      
 Computing Diagnostic #    774  FPHO0002     Counter:       1   Parms: SM P    MR      
 Computing Diagnostic #    775  FSTO0002     Counter:       1   Parms: SM P    MR      
 Computing Diagnostic #    776  FEXC0002     Counter:       1   Parms: SM P    MR      
 Computing Diagnostic #    753  PC0002       Counter:       1   Parms: SM P    MR      
 Computing Diagnostic #    752  PChl0002     Counter:       1   Parms: SM P    MR      
 Computing Diagnostic #    754  VN0002       Counter:       1   Parms: SM P    MR      
 Computing Diagnostic #    755  MODE0002     Counter:       1   Parms: SM P    MR      
 Computing Diagnostic #    756  Fe_C0002     Counter:       1   Parms: SM P    MR      
 Computing Diagnostic #    757  exQc0002     Counter:       1   Parms: SM P    MR      
 Computing Diagnostic #    758  PCg0002      Counter:       1   Parms: SM P    MR      
(PID.TID 0000.0001) // =======================================================
(PID.TID 0000.0001) // Begin MONITOR EXF statistics
(PID.TID 0000.0001) // =======================================================
(PID.TID 0000.0001) %MON exf_tsnumber                 =                     1
(PID.TID 0000.0001) %MON exf_time_sec                 =   3.6000000000000E+03
(PID.TID 0000.0001) %MON exf_ustress_max              =   0.0000000000000E+00
(PID.TID 0000.0001) %MON exf_ustress_min              =   0.0000000000000E+00
(PID.TID 0000.0001) %MON exf_ustress_mean             =   0.0000000000000E+00
(PID.TID 0000.0001) %MON exf_ustress_sd               =   0.0000000000000E+00
(PID.TID 0000.0001) %MON exf_ustress_del2             =   0.0000000000000E+00
(PID.TID 0000.0001) %MON exf_vstress_max              =   0.0000000000000E+00
(PID.TID 0000.0001) %MON exf_vstress_min              =   0.0000000000000E+00
(PID.TID 0000.0001) %MON exf_vstress_mean             =   0.0000000000000E+00
(PID.TID 0000.0001) %MON exf_vstress_sd               =   0.0000000000000E+00
(PID.TID 0000.0001) %MON exf_vstress_del2             =   0.0000000000000E+00
(PID.TID 0000.0001) %MON exf_hflux_max                =   0.0000000000000E+00
(PID.TID 0000.0001) %MON exf_hflux_min                =   0.0000000000000E+00
(PID.TID 0000.0001) %MON exf_hflux_mean               =   0.0000000000000E+00
(PID.TID 0000.0001) %MON exf_hflux_sd                 =   0.0000000000000E+00
(PID.TID 0000.0001) %MON exf_hflux_del2               =   0.0000000000000E+00
(PID.TID 0000.0001) %MON exf_sflux_max                =   0.0000000000000E+00
(PID.TID 0000.0001) %MON exf_sflux_min                =   0.0000000000000E+00
(PID.TID 0000.0001) %MON exf_sflux_mean               =   0.0000000000000E+00
(PID.TID 0000.0001) %MON exf_sflux_sd                 =   0.0000000000000E+00
(PID.TID 0000.0001) %MON exf_sflux_del2               =   0.0000000000000E+00
(PID.TID 0000.0001) %MON exf_uwind_max                =   0.0000000000000E+00
(PID.TID 0000.0001) %MON exf_uwind_min                =   0.0000000000000E+00
(PID.TID 0000.0001) %MON exf_uwind_mean               =   0.0000000000000E+00
(PID.TID 0000.0001) %MON exf_uwind_sd                 =   0.0000000000000E+00
(PID.TID 0000.0001) %MON exf_uwind_del2               =   0.0000000000000E+00
(PID.TID 0000.0001) %MON exf_vwind_max                =   0.0000000000000E+00
(PID.TID 0000.0001) %MON exf_vwind_min                =   0.0000000000000E+00
(PID.TID 0000.0001) %MON exf_vwind_mean               =   0.0000000000000E+00
(PID.TID 0000.0001) %MON exf_vwind_sd                 =   0.0000000000000E+00
(PID.TID 0000.0001) %MON exf_vwind_del2               =   0.0000000000000E+00
(PID.TID 0000.0001) %MON exf_wspeed_max               =   0.0000000000000E+00
(PID.TID 0000.0001) %MON exf_wspeed_min               =   0.0000000000000E+00
(PID.TID 0000.0001) %MON exf_wspeed_mean              =   0.0000000000000E+00
(PID.TID 0000.0001) %MON exf_wspeed_sd                =   0.0000000000000E+00
(PID.TID 0000.0001) %MON exf_wspeed_del2              =   0.0000000000000E+00
(PID.TID 0000.0001) %MON exf_evap_max                 =   0.0000000000000E+00
(PID.TID 0000.0001) %MON exf_evap_min                 =   0.0000000000000E+00
(PID.TID 0000.0001) %MON exf_evap_mean                =   0.0000000000000E+00
(PID.TID 0000.0001) %MON exf_evap_sd                  =   0.0000000000000E+00
(PID.TID 0000.0001) %MON exf_evap_del2                =   0.0000000000000E+00
(PID.TID 0000.0001) // =======================================================
(PID.TID 0000.0001) // End MONITOR EXF statistics
(PID.TID 0000.0001) // =======================================================
(PID.TID 0000.0001) // =======================================================
(PID.TID 0000.0001) // Begin MONITOR GUD statistics
(PID.TID 0000.0001) // =======================================================
(PID.TID 0000.0001) %MON gud_tsnumber                 =                     1
(PID.TID 0000.0001) %MON gud_time_sec                 =   3.6000000000000E+03
(PID.TID 0000.0001) %MON gud_OASIMEd01_max            =   2.7641757004791E+00
(PID.TID 0000.0001) %MON gud_OASIMEd01_min            =   2.5806056383445E-37
(PID.TID 0000.0001) %MON gud_OASIMEd01_mean           =   9.5084907176883E-01
(PID.TID 0000.0001) %MON gud_OASIMEd01_sd             =   6.8296743749913E-01
(PID.TID 0000.0001) %MON gud_OASIMEd01_del2           =   2.4631171851653E-03
(PID.TID 0000.0001) %MON gud_OASIMEd02_max            =   7.1672548876868E+00
(PID.TID 0000.0001) %MON gud_OASIMEd02_min            =   5.1612112766889E-37
(PID.TID 0000.0001) %MON gud_OASIMEd02_mean           =   2.4687031619856E+00
(PID.TID 0000.0001) %MON gud_OASIMEd02_sd             =   1.7471304563280E+00
(PID.TID 0000.0001) %MON gud_OASIMEd02_del2           =   6.3557322549109E-03
(PID.TID 0000.0001) %MON gud_OASIMEd03_max            =   8.7436545716392E+00
(PID.TID 0000.0001) %MON gud_OASIMEd03_min            =   5.1612112766889E-37
(PID.TID 0000.0001) %MON gud_OASIMEd03_mean           =   2.9977299364286E+00
(PID.TID 0000.0001) %MON gud_OASIMEd03_sd             =   2.1075185471977E+00
(PID.TID 0000.0001) %MON gud_OASIMEd03_del2           =   7.6899522883489E-03
(PID.TID 0000.0001) %MON gud_OASIMEd04_max            =   9.2564012805621E+00
(PID.TID 0000.0001) %MON gud_OASIMEd04_min            =   5.1612112766889E-37
(PID.TID 0000.0001) %MON gud_OASIMEd04_mean           =   3.1838819218923E+00
(PID.TID 0000.0001) %MON gud_OASIMEd04_sd             =   2.2161531614022E+00
(PID.TID 0000.0001) %MON gud_OASIMEd04_del2           =   8.1347857272940E-03
(PID.TID 0000.0001) %MON gud_OASIMEd05_max            =   9.3308894806438E+00
(PID.TID 0000.0001) %MON gud_OASIMEd05_min            =   5.1612119474438E-37
(PID.TID 0000.0001) %MON gud_OASIMEd05_mean           =   3.2173774527614E+00
(PID.TID 0000.0001) %MON gud_OASIMEd05_sd             =   2.2193522651494E+00
(PID.TID 0000.0001) %MON gud_OASIMEd05_del2           =   8.1911024641506E-03
(PID.TID 0000.0001) %MON gud_OASIMEd06_max            =   9.1622435953882E+00
(PID.TID 0000.0001) %MON gud_OASIMEd06_min            =   5.1612121710287E-37
(PID.TID 0000.0001) %MON gud_OASIMEd06_mean           =   3.1756514930967E+00
(PID.TID 0000.0001) %MON gud_OASIMEd06_sd             =   2.1768895719027E+00
(PID.TID 0000.0001) %MON gud_OASIMEd06_del2           =   8.0644370941390E-03
(PID.TID 0000.0001) %MON gud_OASIMEd07_max            =   9.2914570914374E+00
(PID.TID 0000.0001) %MON gud_OASIMEd07_min            =   5.1612123946137E-37
(PID.TID 0000.0001) %MON gud_OASIMEd07_mean           =   3.2276109928741E+00
(PID.TID 0000.0001) %MON gud_OASIMEd07_sd             =   2.2030168236179E+00
(PID.TID 0000.0001) %MON gud_OASIMEd07_del2           =   8.1808217138180E-03
(PID.TID 0000.0001) %MON gud_OASIMEd08_max            =   9.1973856343163E+00
(PID.TID 0000.0001) %MON gud_OASIMEd08_min            =   5.1612132889535E-37
(PID.TID 0000.0001) %MON gud_OASIMEd08_mean           =   3.1811489320528E+00
(PID.TID 0000.0001) %MON gud_OASIMEd08_sd             =   2.1652798810718E+00
(PID.TID 0000.0001) %MON gud_OASIMEd08_del2           =   8.0518092582294E-03
(PID.TID 0000.0001) %MON gud_OASIMEd09_max            =   8.7399132596122E+00
(PID.TID 0000.0001) %MON gud_OASIMEd09_min            =   5.1612179842376E-37
(PID.TID 0000.0001) %MON gud_OASIMEd09_mean           =   3.0230964458296E+00
(PID.TID 0000.0001) %MON gud_OASIMEd09_sd             =   2.0482141710599E+00
(PID.TID 0000.0001) %MON gud_OASIMEd09_del2           =   7.6398766425339E-03
(PID.TID 0000.0001) %MON gud_OASIMEd10_max            =   8.6727135539055E+00
(PID.TID 0000.0001) %MON gud_OASIMEd10_min            =   5.1612217851818E-37
(PID.TID 0000.0001) %MON gud_OASIMEd10_mean           =   3.0167929636158E+00
(PID.TID 0000.0001) %MON gud_OASIMEd10_sd             =   2.0390102333852E+00
(PID.TID 0000.0001) %MON gud_OASIMEd10_del2           =   7.6140827051183E-03
(PID.TID 0000.0001) %MON gud_OASIMEd11_max            =   8.2036830233203E+00
(PID.TID 0000.0001) %MON gud_OASIMEd11_min            =   5.1612253625411E-37
(PID.TID 0000.0001) %MON gud_OASIMEd11_mean           =   2.8456358003486E+00
(PID.TID 0000.0001) %MON gud_OASIMEd11_sd             =   1.9150289023397E+00
(PID.TID 0000.0001) %MON gud_OASIMEd11_del2           =   7.1711399282430E-03
(PID.TID 0000.0001) %MON gud_OASIMEd12_max            =   7.4841606113646E+00
(PID.TID 0000.0001) %MON gud_OASIMEd12_min            =   5.1612275983906E-37
(PID.TID 0000.0001) %MON gud_OASIMEd12_mean           =   2.5977871406568E+00
(PID.TID 0000.0001) %MON gud_OASIMEd12_sd             =   1.7520265584457E+00
(PID.TID 0000.0001) %MON gud_OASIMEd12_del2           =   6.5472369939403E-03
(PID.TID 0000.0001) %MON gud_OASIMEd13_max            =   3.6977701753378E+00
(PID.TID 0000.0001) %MON gud_OASIMEd13_min            =   5.1612347531092E-37
(PID.TID 0000.0001) %MON gud_OASIMEd13_mean           =   1.2780644850274E+00
(PID.TID 0000.0001) %MON gud_OASIMEd13_sd             =   8.5783726962184E-01
(PID.TID 0000.0001) %MON gud_OASIMEd13_del2           =   3.2165461477001E-03
(PID.TID 0000.0001) %MON gud_OASIMEs01_max            =   2.9258968055248E+00
(PID.TID 0000.0001) %MON gud_OASIMEs01_min            =   4.6922806844741E-37
(PID.TID 0000.0001) %MON gud_OASIMEs01_mean           =   1.9221785372649E+00
(PID.TID 0000.0001) %MON gud_OASIMEs01_sd             =   7.2419327260892E-01
(PID.TID 0000.0001) %MON gud_OASIMEs01_del2           =   4.6543945569585E-03
(PID.TID 0000.0001) %MON gud_OASIMEs02_max            =   6.9805682003498E+00
(PID.TID 0000.0001) %MON gud_OASIMEs02_min            =   9.3845613689483E-37
(PID.TID 0000.0001) %MON gud_OASIMEs02_mean           =   4.5357043587920E+00
(PID.TID 0000.0001) %MON gud_OASIMEs02_sd             =   1.7200227304358E+00
(PID.TID 0000.0001) %MON gud_OASIMEs02_del2           =   1.1007635486716E-02
(PID.TID 0000.0001) %MON gud_OASIMEs03_max            =   8.0270610895422E+00
(PID.TID 0000.0001) %MON gud_OASIMEs03_min            =   9.3845613689483E-37
(PID.TID 0000.0001) %MON gud_OASIMEs03_mean           =   5.1679746792227E+00
(PID.TID 0000.0001) %MON gud_OASIMEs03_sd             =   1.9760474479043E+00
(PID.TID 0000.0001) %MON gud_OASIMEs03_del2           =   1.2529269113156E-02
(PID.TID 0000.0001) %MON gud_OASIMEs04_max            =   8.0646485514111E+00
(PID.TID 0000.0001) %MON gud_OASIMEs04_min            =   9.3845618161182E-37
(PID.TID 0000.0001) %MON gud_OASIMEs04_mean           =   5.1505668774641E+00
(PID.TID 0000.0001) %MON gud_OASIMEs04_sd             =   1.9825710112421E+00
(PID.TID 0000.0001) %MON gud_OASIMEs04_del2           =   1.2509590259086E-02
(PID.TID 0000.0001) %MON gud_OASIMEs05_max            =   7.7764864391751E+00
(PID.TID 0000.0001) %MON gud_OASIMEs05_min            =   9.3845622632881E-37
(PID.TID 0000.0001) %MON gud_OASIMEs05_mean           =   4.9329712048006E+00
(PID.TID 0000.0001) %MON gud_OASIMEs05_sd             =   1.9119440582511E+00
(PID.TID 0000.0001) %MON gud_OASIMEs05_del2           =   1.2010782265153E-02
(PID.TID 0000.0001) %MON gud_OASIMEs06_max            =   7.3732730699910E+00
(PID.TID 0000.0001) %MON gud_OASIMEs06_min            =   9.3845636047978E-37
(PID.TID 0000.0001) %MON gud_OASIMEs06_mean           =   4.6470994175735E+00
(PID.TID 0000.0001) %MON gud_OASIMEs06_sd             =   1.8165225209689E+00
(PID.TID 0000.0001) %MON gud_OASIMEs06_del2           =   1.1333482400664E-02
(PID.TID 0000.0001) %MON gud_OASIMEs07_max            =   7.2592306024498E+00
(PID.TID 0000.0001) %MON gud_OASIMEs07_min            =   9.3845644991376E-37
(PID.TID 0000.0001) %MON gud_OASIMEs07_mean           =   4.5511415347300E+00
(PID.TID 0000.0001) %MON gud_OASIMEs07_sd             =   1.7939053980737E+00
(PID.TID 0000.0001) %MON gud_OASIMEs07_del2           =   1.1114763550494E-02
(PID.TID 0000.0001) %MON gud_OASIMEs08_max            =   7.0182533846961E+00
(PID.TID 0000.0001) %MON gud_OASIMEs08_min            =   9.3845662878173E-37
(PID.TID 0000.0001) %MON gud_OASIMEs08_mean           =   4.3710292191430E+00
(PID.TID 0000.0001) %MON gud_OASIMEs08_sd             =   1.7377983098261E+00
(PID.TID 0000.0001) %MON gud_OASIMEs08_del2           =   1.0693646254758E-02
(PID.TID 0000.0001) %MON gud_OASIMEs09_max            =   6.5691454847654E+00
(PID.TID 0000.0001) %MON gud_OASIMEs09_min            =   9.3845738897057E-37
(PID.TID 0000.0001) %MON gud_OASIMEs09_mean           =   4.0587122264947E+00
(PID.TID 0000.0001) %MON gud_OASIMEs09_sd             =   1.6231844887599E+00
(PID.TID 0000.0001) %MON gud_OASIMEs09_del2           =   9.9556661083460E-03
(PID.TID 0000.0001) %MON gud_OASIMEs10_max            =   6.4142785761091E+00
(PID.TID 0000.0001) %MON gud_OASIMEs10_min            =   9.3845792557447E-37
(PID.TID 0000.0001) %MON gud_OASIMEs10_mean           =   3.9763263065325E+00
(PID.TID 0000.0001) %MON gud_OASIMEs10_sd             =   1.5881093462739E+00
(PID.TID 0000.0001) %MON gud_OASIMEs10_del2           =   9.7392601832390E-03
(PID.TID 0000.0001) %MON gud_OASIMEs11_max            =   6.0376754078600E+00
(PID.TID 0000.0001) %MON gud_OASIMEs11_min            =   9.3845832802738E-37
(PID.TID 0000.0001) %MON gud_OASIMEs11_mean           =   3.7217902461897E+00
(PID.TID 0000.0001) %MON gud_OASIMEs11_sd             =   1.4843881902432E+00
(PID.TID 0000.0001) %MON gud_OASIMEs11_del2           =   9.1187536249657E-03
(PID.TID 0000.0001) %MON gud_OASIMEs12_max            =   5.4183848785030E+00
(PID.TID 0000.0001) %MON gud_OASIMEs12_min            =   9.3845890934827E-37
(PID.TID 0000.0001) %MON gud_OASIMEs12_mean           =   3.3338888536026E+00
(PID.TID 0000.0001) %MON gud_OASIMEs12_sd             =   1.3449440631949E+00
(PID.TID 0000.0001) %MON gud_OASIMEs12_del2           =   8.1721802405297E-03
(PID.TID 0000.0001) %MON gud_OASIMEs13_max            =   2.6722178932693E+00
(PID.TID 0000.0001) %MON gud_OASIMEs13_min            =   9.3845984840508E-37
(PID.TID 0000.0001) %MON gud_OASIMEs13_mean           =   1.6316545634048E+00
(PID.TID 0000.0001) %MON gud_OASIMEs13_sd             =   6.5795087232535E-01
(PID.TID 0000.0001) %MON gud_OASIMEs13_del2           =   4.0069233517539E-03
(PID.TID 0000.0001) %MON gud_surfPAR_max              =   0.0000000000000E+00
(PID.TID 0000.0001) %MON gud_surfPAR_min              =   0.0000000000000E+00
(PID.TID 0000.0001) %MON gud_surfPAR_mean             =   0.0000000000000E+00
(PID.TID 0000.0001) %MON gud_surfPAR_sd               =   0.0000000000000E+00
(PID.TID 0000.0001) %MON gud_surfPAR_del2             =   0.0000000000000E+00
(PID.TID 0000.0001) %MON gud_inputFe_max              =   4.8171645329349E-09
(PID.TID 0000.0001) %MON gud_inputFe_min              =   7.4751689122503E-12
(PID.TID 0000.0001) %MON gud_inputFe_mean             =   4.3467270554840E-10
(PID.TID 0000.0001) %MON gud_inputFe_sd               =   5.1791941869659E-10
(PID.TID 0000.0001) %MON gud_inputFe_del2             =   1.3998641287310E-12
(PID.TID 0000.0001) %MON gud_iceFrac_max              =   1.0000000000000E+00
(PID.TID 0000.0001) %MON gud_iceFrac_min              =   0.0000000000000E+00
(PID.TID 0000.0001) %MON gud_iceFrac_mean             =   6.0863244446712E-03
(PID.TID 0000.0001) %MON gud_iceFrac_sd               =   6.5786020420495E-02
(PID.TID 0000.0001) %MON gud_iceFrac_del2             =   3.5296297195229E-04
(PID.TID 0000.0001) %MON gud_windSpeed_max            =   1.4270577549934E+01
(PID.TID 0000.0001) %MON gud_windSpeed_min            =   2.1541499247154E+00
(PID.TID 0000.0001) %MON gud_windSpeed_mean           =   7.6790960895271E+00
(PID.TID 0000.0001) %MON gud_windSpeed_sd             =   2.3580367751565E+00
(PID.TID 0000.0001) %MON gud_windSpeed_del2           =   1.8892272359348E-02
(PID.TID 0000.0001) %MON gud_atmospCO2_max            =   2.7800000000000E-04
(PID.TID 0000.0001) %MON gud_atmospCO2_min            =   2.7800000000000E-04
(PID.TID 0000.0001) %MON gud_atmospCO2_mean           =   2.7800000000000E-04
(PID.TID 0000.0001) %MON gud_atmospCO2_sd             =   5.4210108624275E-19
(PID.TID 0000.0001) %MON gud_atmospCO2_del2           =   0.0000000000000E+00
(PID.TID 0000.0001) // =======================================================
(PID.TID 0000.0001) // End MONITOR GUD statistics
(PID.TID 0000.0001) // =======================================================
(PID.TID 0000.0001) // =======================================================
(PID.TID 0000.0001) // Begin MONITOR dynamic field statistics
(PID.TID 0000.0001) // =======================================================
(PID.TID 0000.0001) %MON time_tsnumber                =                     2
(PID.TID 0000.0001) %MON time_secondsf                =   7.2000000000000E+03
(PID.TID 0000.0001) %MON dynstat_eta_max              =   0.0000000000000E+00
(PID.TID 0000.0001) %MON dynstat_eta_min              =   0.0000000000000E+00
(PID.TID 0000.0001) %MON dynstat_eta_mean             =   0.0000000000000E+00
(PID.TID 0000.0001) %MON dynstat_eta_sd               =   0.0000000000000E+00
(PID.TID 0000.0001) %MON dynstat_eta_del2             =   0.0000000000000E+00
(PID.TID 0000.0001) %MON dynstat_uvel_max             =   7.7350547909737E-01
(PID.TID 0000.0001) %MON dynstat_uvel_min             =  -8.3114770551523E-01
(PID.TID 0000.0001) %MON dynstat_uvel_mean            =   2.3404205213498E-03
(PID.TID 0000.0001) %MON dynstat_uvel_sd              =   2.2853111160159E-02
(PID.TID 0000.0001) %MON dynstat_uvel_del2            =   2.5381184388454E-05
(PID.TID 0000.0001) %MON dynstat_vvel_max             =   1.3461631933848E+00
(PID.TID 0000.0001) %MON dynstat_vvel_min             =  -8.2178317693373E-01
(PID.TID 0000.0001) %MON dynstat_vvel_mean            =  -1.7712756803555E-05
(PID.TID 0000.0001) %MON dynstat_vvel_sd              =   1.1630536466980E-02
(PID.TID 0000.0001) %MON dynstat_vvel_del2            =   2.3677132909796E-05
(PID.TID 0000.0001) %MON dynstat_wvel_max             =   4.8071096656107E-04
(PID.TID 0000.0001) %MON dynstat_wvel_min             =  -6.2355582485907E-04
(PID.TID 0000.0001) %MON dynstat_wvel_mean            =   2.1409094546176E-14
(PID.TID 0000.0001) %MON dynstat_wvel_sd              =   1.0153453498492E-05
(PID.TID 0000.0001) %MON dynstat_wvel_del2            =   1.8695442909690E-08
(PID.TID 0000.0001) %MON dynstat_theta_max            =   3.1794526576996E+01
(PID.TID 0000.0001) %MON dynstat_theta_min            =  -2.6731135249138E+00
(PID.TID 0000.0001) %MON dynstat_theta_mean           =   3.6070102970983E+00
(PID.TID 0000.0001) %MON dynstat_theta_sd             =   4.4532574145356E+00
(PID.TID 0000.0001) %MON dynstat_theta_del2           =   3.5993616724257E-04
(PID.TID 0000.0001) %MON dynstat_salt_max             =   3.9534736633301E+01
(PID.TID 0000.0001) %MON dynstat_salt_min             =   2.6477639516195E+01
(PID.TID 0000.0001) %MON dynstat_salt_mean            =   3.4722179783713E+01
(PID.TID 0000.0001) %MON dynstat_salt_sd              =   3.6507630303070E-01
(PID.TID 0000.0001) %MON dynstat_salt_del2            =   6.8861948229277E-05
(PID.TID 0000.0001) %MON dynstat_sst_max              =   3.1794526576996E+01
(PID.TID 0000.0001) %MON dynstat_sst_min              =  -1.9912642439206E+00
(PID.TID 0000.0001) %MON dynstat_sst_mean             =   1.9172841030373E+01
(PID.TID 0000.0001) %MON dynstat_sst_sd               =   9.5465407635777E+00
(PID.TID 0000.0001) %MON dynstat_sst_del2             =   2.1528183703066E-03
(PID.TID 0000.0001) %MON dynstat_sss_max              =   3.9534736633301E+01
(PID.TID 0000.0001) %MON dynstat_sss_min              =   2.6477639516195E+01
(PID.TID 0000.0001) %MON dynstat_sss_mean             =   3.4861594061364E+01
(PID.TID 0000.0001) %MON dynstat_sss_sd               =   1.0808899643187E+00
(PID.TID 0000.0001) %MON dynstat_sss_del2             =   5.9463366062707E-04
(PID.TID 0000.0001) %MON forcing_qnet_max             =   0.0000000000000E+00
(PID.TID 0000.0001) %MON forcing_qnet_min             =   0.0000000000000E+00
(PID.TID 0000.0001) %MON forcing_qnet_mean            =   0.0000000000000E+00
(PID.TID 0000.0001) %MON forcing_qnet_sd              =   0.0000000000000E+00
(PID.TID 0000.0001) %MON forcing_qnet_del2            =   0.0000000000000E+00
(PID.TID 0000.0001) %MON forcing_qsw_max              =   0.0000000000000E+00
(PID.TID 0000.0001) %MON forcing_qsw_min              =   0.0000000000000E+00
(PID.TID 0000.0001) %MON forcing_qsw_mean             =   0.0000000000000E+00
(PID.TID 0000.0001) %MON forcing_qsw_sd               =   0.0000000000000E+00
(PID.TID 0000.0001) %MON forcing_qsw_del2             =   0.0000000000000E+00
(PID.TID 0000.0001) %MON forcing_empmr_max            =   0.0000000000000E+00
(PID.TID 0000.0001) %MON forcing_empmr_min            =   0.0000000000000E+00
(PID.TID 0000.0001) %MON forcing_empmr_mean           =   0.0000000000000E+00
(PID.TID 0000.0001) %MON forcing_empmr_sd             =   0.0000000000000E+00
(PID.TID 0000.0001) %MON forcing_empmr_del2           =   0.0000000000000E+00
(PID.TID 0000.0001) %MON forcing_fu_max               =   0.0000000000000E+00
(PID.TID 0000.0001) %MON forcing_fu_min               =   0.0000000000000E+00
(PID.TID 0000.0001) %MON forcing_fu_mean              =   0.0000000000000E+00
(PID.TID 0000.0001) %MON forcing_fu_sd                =   0.0000000000000E+00
(PID.TID 0000.0001) %MON forcing_fu_del2              =   0.0000000000000E+00
(PID.TID 0000.0001) %MON forcing_fv_max               =   0.0000000000000E+00
(PID.TID 0000.0001) %MON forcing_fv_min               =   0.0000000000000E+00
(PID.TID 0000.0001) %MON forcing_fv_mean              =   0.0000000000000E+00
(PID.TID 0000.0001) %MON forcing_fv_sd                =   0.0000000000000E+00
(PID.TID 0000.0001) %MON forcing_fv_del2              =   0.0000000000000E+00
(PID.TID 0000.0001) %MON trAdv_CFL_u_max              =   4.5657237142810E-02
(PID.TID 0000.0001) %MON trAdv_CFL_v_max              =   4.5166209739178E-02
(PID.TID 0000.0001) %MON trAdv_CFL_w_max              =   6.4777347579366E-02
(PID.TID 0000.0001) %MON advcfl_uvel_max              =   4.4336880287799E-02
(PID.TID 0000.0001) %MON advcfl_vvel_max              =   4.3589653102118E-02
(PID.TID 0000.0001) %MON advcfl_wvel_max              =   7.6913754649771E-02
(PID.TID 0000.0001) %MON advcfl_W_hf_max              =   8.6527973980992E-02
(PID.TID 0000.0001) %MON pe_b_mean                    =   0.0000000000000E+00
(PID.TID 0000.0001) %MON ke_max                       =   7.2987910118337E-01
(PID.TID 0000.0001) %MON ke_mean                      =   3.1796575531398E-04
(PID.TID 0000.0001) %MON ke_vol                       =   1.3258927395736E+18
(PID.TID 0000.0001) %MON vort_r_min                   =  -1.3722698025927E-05
(PID.TID 0000.0001) %MON vort_r_max                   =   1.6612226632808E-05
(PID.TID 0000.0001) %MON vort_a_mean                  =  -2.1443554603594E-05
(PID.TID 0000.0001) %MON vort_a_sd                    =   7.3250399594448E-05
(PID.TID 0000.0001) %MON vort_p_mean                  =  -2.3136237658118E-05
(PID.TID 0000.0001) %MON vort_p_sd                    =   8.5528189077972E-05
(PID.TID 0000.0001) %MON surfExpan_theta_mean         =  -4.6303780088069E-08
(PID.TID 0000.0001) %MON surfExpan_salt_mean          =   6.7151570946380E-09
(PID.TID 0000.0001) // =======================================================
(PID.TID 0000.0001) // End MONITOR dynamic field statistics
(PID.TID 0000.0001) // =======================================================
(PID.TID 0000.0001) // =======================================================
(PID.TID 0000.0001) // Begin MONITOR ptracer field statistics
(PID.TID 0000.0001) // =======================================================
(PID.TID 0000.0001) %MON trcstat_ptracer01_max        =   2.4130823994195E+03
(PID.TID 0000.0001) %MON trcstat_ptracer01_min        =   1.7242749144274E+03
(PID.TID 0000.0001) %MON trcstat_ptracer01_mean       =   2.2529365535362E+03
(PID.TID 0000.0001) %MON trcstat_ptracer01_sd         =   8.1245381866540E+01
(PID.TID 0000.0001) %MON trcstat_ptracer01_del2       =   8.7085524782622E-03
(PID.TID 0000.0001) %MON trcstat_ptracer02_max        =   1.1854871851472E+01
(PID.TID 0000.0001) %MON trcstat_ptracer02_min        =  -5.8197476136184E-08
(PID.TID 0000.0001) %MON trcstat_ptracer02_mean       =   5.5640459509674E-02
(PID.TID 0000.0001) %MON trcstat_ptracer02_sd         =   4.7080897810626E-01
(PID.TID 0000.0001) %MON trcstat_ptracer02_del2       =   3.1998050943469E-04
(PID.TID 0000.0001) %MON trcstat_ptracer03_max        =   6.7839582071090E+00
(PID.TID 0000.0001) %MON trcstat_ptracer03_min        =  -3.1118809655196E-08
(PID.TID 0000.0001) %MON trcstat_ptracer03_mean       =   1.9929770804798E-02
(PID.TID 0000.0001) %MON trcstat_ptracer03_sd         =   1.4769168005099E-01
(PID.TID 0000.0001) %MON trcstat_ptracer03_del2       =   2.1732010697602E-04
(PID.TID 0000.0001) %MON trcstat_ptracer04_max        =   4.4621943807567E+01
(PID.TID 0000.0001) %MON trcstat_ptracer04_min        =  -3.1578232057726E-01
(PID.TID 0000.0001) %MON trcstat_ptracer04_mean       =   3.0605059100919E+01
(PID.TID 0000.0001) %MON trcstat_ptracer04_sd         =   9.0656311041208E+00
(PID.TID 0000.0001) %MON trcstat_ptracer04_del2       =   7.4047509470641E-04
(PID.TID 0000.0001) %MON trcstat_ptracer05_max        =   3.6470197276054E+00
(PID.TID 0000.0001) %MON trcstat_ptracer05_min        =   8.8170541068619E-02
(PID.TID 0000.0001) %MON trcstat_ptracer05_mean       =   2.1762771340297E+00
(PID.TID 0000.0001) %MON trcstat_ptracer05_sd         =   6.2491508847914E-01
(PID.TID 0000.0001) %MON trcstat_ptracer05_del2       =   4.5799822954091E-05
(PID.TID 0000.0001) %MON trcstat_ptracer06_max        =   2.7521057394577E+02
(PID.TID 0000.0001) %MON trcstat_ptracer06_min        =   1.1357056360943E+00
(PID.TID 0000.0001) %MON trcstat_ptracer06_mean       =   9.0930632983588E+01
(PID.TID 0000.0001) %MON trcstat_ptracer06_sd         =   5.1624229298810E+01
(PID.TID 0000.0001) %MON trcstat_ptracer06_del2       =   1.3880386451351E-03
(PID.TID 0000.0001) %MON trcstat_ptracer07_max        =   1.0779232989549E-03
(PID.TID 0000.0001) %MON trcstat_ptracer07_min        =  -3.1009972843049E-06
(PID.TID 0000.0001) %MON trcstat_ptracer07_mean       =   6.3293851122593E-04
(PID.TID 0000.0001) %MON trcstat_ptracer07_sd         =   2.0823126898653E-04
(PID.TID 0000.0001) %MON trcstat_ptracer07_del2       =   1.0263079109024E-07
(PID.TID 0000.0001) %MON trcstat_ptracer08_max        =   2.8114053137539E+02
(PID.TID 0000.0001) %MON trcstat_ptracer08_min        =   8.2846846747873E-08
(PID.TID 0000.0001) %MON trcstat_ptracer08_mean       =   2.2680254768419E-01
(PID.TID 0000.0001) %MON trcstat_ptracer08_sd         =   1.7778634367486E+00
(PID.TID 0000.0001) %MON trcstat_ptracer08_del2       =   2.8437031949526E-03
(PID.TID 0000.0001) %MON trcstat_ptracer09_max        =   3.9089560690825E+01
(PID.TID 0000.0001) %MON trcstat_ptracer09_min        =  -1.9120663571148E-07
(PID.TID 0000.0001) %MON trcstat_ptracer09_mean       =   2.3906710005989E-02
(PID.TID 0000.0001) %MON trcstat_ptracer09_sd         =   1.4690765735538E-01
(PID.TID 0000.0001) %MON trcstat_ptracer09_del2       =   1.2713742177960E-04
(PID.TID 0000.0001) %MON trcstat_ptracer10_max        =   2.3037835062620E+00
(PID.TID 0000.0001) %MON trcstat_ptracer10_min        =   3.3785103195194E-10
(PID.TID 0000.0001) %MON trcstat_ptracer10_mean       =   1.6513640477661E-03
(PID.TID 0000.0001) %MON trcstat_ptracer10_sd         =   1.0436613266968E-02
(PID.TID 0000.0001) %MON trcstat_ptracer10_del2       =   9.0533574561532E-06
(PID.TID 0000.0001) %MON trcstat_ptracer11_max        =   1.1183254932310E-02
(PID.TID 0000.0001) %MON trcstat_ptracer11_min        =   1.8215954254908E-11
(PID.TID 0000.0001) %MON trcstat_ptracer11_mean       =   1.3262422243854E-05
(PID.TID 0000.0001) %MON trcstat_ptracer11_sd         =   8.8376394361989E-05
(PID.TID 0000.0001) %MON trcstat_ptracer11_del2       =   8.9078757394895E-08
(PID.TID 0000.0001) %MON trcstat_ptracer12_max        =   1.0788667580426E+03
(PID.TID 0000.0001) %MON trcstat_ptracer12_min        =   2.5659088001726E-09
(PID.TID 0000.0001) %MON trcstat_ptracer12_mean       =   3.0130622329627E-02
(PID.TID 0000.0001) %MON trcstat_ptracer12_sd         =   1.6482525704039E+00
(PID.TID 0000.0001) %MON trcstat_ptracer12_del2       =   1.5576324513033E-04
(PID.TID 0000.0001) %MON trcstat_ptracer13_max        =   1.5258213595008E+02
(PID.TID 0000.0001) %MON trcstat_ptracer13_min        =   1.7371942900658E-10
(PID.TID 0000.0001) %MON trcstat_ptracer13_mean       =   3.7093431159056E-03
(PID.TID 0000.0001) %MON trcstat_ptracer13_sd         =   2.3419945675507E-01
(PID.TID 0000.0001) %MON trcstat_ptracer13_del2       =   2.2836157008918E-05
(PID.TID 0000.0001) %MON trcstat_ptracer14_max        =   9.1173927136948E+00
(PID.TID 0000.0001) %MON trcstat_ptracer14_min        =   1.3422286375936E-11
(PID.TID 0000.0001) %MON trcstat_ptracer14_mean       =   2.4173325547455E-04
(PID.TID 0000.0001) %MON trcstat_ptracer14_sd         =   1.3793767255748E-02
(PID.TID 0000.0001) %MON trcstat_ptracer14_del2       =   1.3432105920203E-06
(PID.TID 0000.0001) %MON trcstat_ptracer15_max        =   2.5125229302467E+01
(PID.TID 0000.0001) %MON trcstat_ptracer15_min        =  -1.7984322901912E-07
(PID.TID 0000.0001) %MON trcstat_ptracer15_mean       =   1.4887644432673E-02
(PID.TID 0000.0001) %MON trcstat_ptracer15_sd         =   1.1612485386205E-01
(PID.TID 0000.0001) %MON trcstat_ptracer15_del2       =   1.0098095064763E-05
(PID.TID 0000.0001) %MON trcstat_ptracer16_max        =   1.2665161152051E-02
(PID.TID 0000.0001) %MON trcstat_ptracer16_min        =   6.4122841762403E-13
(PID.TID 0000.0001) %MON trcstat_ptracer16_mean       =   1.8101074523531E-06
(PID.TID 0000.0001) %MON trcstat_ptracer16_sd         =   2.4831161428089E-05
(PID.TID 0000.0001) %MON trcstat_ptracer16_del2       =   2.2539925142558E-08
(PID.TID 0000.0001) %MON trcstat_ptracer17_max        =   1.6449808482731E+01
(PID.TID 0000.0001) %MON trcstat_ptracer17_min        =  -1.1105742138499E-07
(PID.TID 0000.0001) %MON trcstat_ptracer17_mean       =   6.2385981385002E-03
(PID.TID 0000.0001) %MON trcstat_ptracer17_sd         =   5.6831960896559E-02
(PID.TID 0000.0001) %MON trcstat_ptracer17_del2       =   1.3418532954586E-05
(PID.TID 0000.0001) %MON trcstat_ptracer18_max        =   2.5684166754599E+03
(PID.TID 0000.0001) %MON trcstat_ptracer18_min        =   2.0139619674605E+03
(PID.TID 0000.0001) %MON trcstat_ptracer18_mean       =   2.3642448535998E+03
(PID.TID 0000.0001) %MON trcstat_ptracer18_sd         =   4.1988391792802E+01
(PID.TID 0000.0001) %MON trcstat_ptracer18_del2       =   4.8821860900186E-03
(PID.TID 0000.0001) %MON trcstat_ptracer19_max        =   4.0720535889358E+02
(PID.TID 0000.0001) %MON trcstat_ptracer19_min        =   2.4720847373098E-05
(PID.TID 0000.0001) %MON trcstat_ptracer19_mean       =   2.0188664556261E+01
(PID.TID 0000.0001) %MON trcstat_ptracer19_sd         =   5.4436680327984E+01
(PID.TID 0000.0001) %MON trcstat_ptracer19_del2       =   1.3989562290130E-02
(PID.TID 0000.0001) %MON trcstat_ptracer20_max        =   9.8870780371067E-02
(PID.TID 0000.0001) %MON trcstat_ptracer20_min        =  -4.0521563514138E-11
(PID.TID 0000.0001) %MON trcstat_ptracer20_mean       =   1.1314461511010E-04
(PID.TID 0000.0001) %MON trcstat_ptracer20_sd         =   3.9878475972102E-04
(PID.TID 0000.0001) %MON trcstat_ptracer20_del2       =   2.4489798841856E-07
(PID.TID 0000.0001) %MON trcstat_ptracer21_max        =   6.5813211923649E+01
(PID.TID 0000.0001) %MON trcstat_ptracer21_min        =  -2.5352024546665E-06
(PID.TID 0000.0001) %MON trcstat_ptracer21_mean       =   1.1303134446957E-01
(PID.TID 0000.0001) %MON trcstat_ptracer21_sd         =   1.0714516101225E+00
(PID.TID 0000.0001) %MON trcstat_ptracer21_del2       =   1.5326646454070E-03
(PID.TID 0000.0001) %MON trcstat_ptracer22_max        =   6.2070639823195E+01
(PID.TID 0000.0001) %MON trcstat_ptracer22_min        =  -3.7263825422084E-05
(PID.TID 0000.0001) %MON trcstat_ptracer22_mean       =   5.6073005000138E-02
(PID.TID 0000.0001) %MON trcstat_ptracer22_sd         =   5.3667709774976E-01
(PID.TID 0000.0001) %MON trcstat_ptracer22_del2       =   1.0085407499955E-03
(PID.TID 0000.0001) %MON trcstat_ptracer23_max        =   4.0272965764025E-11
(PID.TID 0000.0001) %MON trcstat_ptracer23_min        =  -1.9602668985564E-19
(PID.TID 0000.0001) %MON trcstat_ptracer23_mean       =   1.4734697442790E-13
(PID.TID 0000.0001) %MON trcstat_ptracer23_sd         =   5.4427101947958E-13
(PID.TID 0000.0001) %MON trcstat_ptracer23_del2       =   1.7972456627829E-16
(PID.TID 0000.0001) %MON trcstat_ptracer24_max        =   4.0272965764025E-11
(PID.TID 0000.0001) %MON trcstat_ptracer24_min        =  -1.9602668985564E-19
(PID.TID 0000.0001) %MON trcstat_ptracer24_mean       =   1.4734697442790E-13
(PID.TID 0000.0001) %MON trcstat_ptracer24_sd         =   5.4427101947958E-13
(PID.TID 0000.0001) %MON trcstat_ptracer24_del2       =   1.7972456627829E-16
(PID.TID 0000.0001) %MON trcstat_ptracer25_max        =   7.2077119717775E+00
(PID.TID 0000.0001) %MON trcstat_ptracer25_min        =  -5.4719013658912E-07
(PID.TID 0000.0001) %MON trcstat_ptracer25_mean       =   1.3266053317487E-02
(PID.TID 0000.0001) %MON trcstat_ptracer25_sd         =   1.1281467284717E-01
(PID.TID 0000.0001) %MON trcstat_ptracer25_del2       =   1.5997990507045E-04
(PID.TID 0000.0001) %MON trcstat_ptracer26_max        =   8.1738878941411E+00
(PID.TID 0000.0001) %MON trcstat_ptracer26_min        =  -7.3688758303271E-06
(PID.TID 0000.0001) %MON trcstat_ptracer26_mean       =   7.5902555456937E-03
(PID.TID 0000.0001) %MON trcstat_ptracer26_sd         =   7.0573891995837E-02
(PID.TID 0000.0001) %MON trcstat_ptracer26_del2       =   1.2022450201168E-04
(PID.TID 0000.0001) %MON trcstat_ptracer27_max        =   6.0789380940399E-12
(PID.TID 0000.0001) %MON trcstat_ptracer27_min        =  -2.9588934363934E-20
(PID.TID 0000.0001) %MON trcstat_ptracer27_mean       =   2.2241052744330E-14
(PID.TID 0000.0001) %MON trcstat_ptracer27_sd         =   8.2154116142445E-14
(PID.TID 0000.0001) %MON trcstat_ptracer27_del2       =   2.7128236418576E-17
(PID.TID 0000.0001) %MON trcstat_ptracer28_max        =   6.0789380940399E-12
(PID.TID 0000.0001) %MON trcstat_ptracer28_min        =  -2.9588934363934E-20
(PID.TID 0000.0001) %MON trcstat_ptracer28_mean       =   2.2241052744330E-14
(PID.TID 0000.0001) %MON trcstat_ptracer28_sd         =   8.2154116142445E-14
(PID.TID 0000.0001) %MON trcstat_ptracer28_del2       =   2.7128236418576E-17
(PID.TID 0000.0001) %MON trcstat_ptracer29_max        =   3.3128681015934E-01
(PID.TID 0000.0001) %MON trcstat_ptracer29_min        =  -1.3244834634705E-08
(PID.TID 0000.0001) %MON trcstat_ptracer29_mean       =   5.6535629749749E-04
(PID.TID 0000.0001) %MON trcstat_ptracer29_sd         =   5.3963586086152E-03
(PID.TID 0000.0001) %MON trcstat_ptracer29_del2       =   7.2783453767898E-06
(PID.TID 0000.0001) %MON trcstat_ptracer30_max        =   4.8220860308728E-01
(PID.TID 0000.0001) %MON trcstat_ptracer30_min        =  -7.2370514213677E-07
(PID.TID 0000.0001) %MON trcstat_ptracer30_mean       =   8.1115023606116E-04
(PID.TID 0000.0001) %MON trcstat_ptracer30_sd         =   7.4358826612799E-03
(PID.TID 0000.0001) %MON trcstat_ptracer30_del2       =   1.1035408563041E-05
(PID.TID 0000.0001) %MON trcstat_ptracer31_max        =   2.3745851929843E-14
(PID.TID 0000.0001) %MON trcstat_ptracer31_min        =  -1.1558177485912E-22
(PID.TID 0000.0001) %MON trcstat_ptracer31_mean       =   8.6879112282538E-17
(PID.TID 0000.0001) %MON trcstat_ptracer31_sd         =   3.2091451618142E-16
(PID.TID 0000.0001) %MON trcstat_ptracer31_del2       =   1.0596967351006E-19
(PID.TID 0000.0001) %MON trcstat_ptracer32_max        =   2.3745851929843E-14
(PID.TID 0000.0001) %MON trcstat_ptracer32_min        =  -1.1558177485912E-22
(PID.TID 0000.0001) %MON trcstat_ptracer32_mean       =   8.6879112282538E-17
(PID.TID 0000.0001) %MON trcstat_ptracer32_sd         =   3.2091451618142E-16
(PID.TID 0000.0001) %MON trcstat_ptracer32_del2       =   1.0596967351006E-19
(PID.TID 0000.0001) %MON trcstat_ptracer33_max        =   6.9623638361354E-03
(PID.TID 0000.0001) %MON trcstat_ptracer33_min        =  -6.8454693569513E-10
(PID.TID 0000.0001) %MON trcstat_ptracer33_mean       =   8.1842225955338E-06
(PID.TID 0000.0001) %MON trcstat_ptracer33_sd         =   6.5359370141624E-05
(PID.TID 0000.0001) %MON trcstat_ptracer33_del2       =   7.3940550808533E-08
(PID.TID 0000.0001) %MON trcstat_ptracer34_max        =   3.3206413406870E-03
(PID.TID 0000.0001) %MON trcstat_ptracer34_min        =  -6.2788791344913E-09
(PID.TID 0000.0001) %MON trcstat_ptracer34_mean       =   3.4561016812370E-06
(PID.TID 0000.0001) %MON trcstat_ptracer34_sd         =   2.5229358451299E-05
(PID.TID 0000.0001) %MON trcstat_ptracer34_del2       =   4.1201887062150E-08
(PID.TID 0000.0001) %MON trcstat_ptracer35_max        =   4.0272966349690E-14
(PID.TID 0000.0001) %MON trcstat_ptracer35_min        =  -1.9602668964182E-22
(PID.TID 0000.0001) %MON trcstat_ptracer35_mean       =   1.4734697442506E-16
(PID.TID 0000.0001) %MON trcstat_ptracer35_sd         =   5.4427101944792E-16
(PID.TID 0000.0001) %MON trcstat_ptracer35_del2       =   1.7972456623128E-19
(PID.TID 0000.0001) %MON trcstat_ptracer36_max        =   4.0272966349690E-14
(PID.TID 0000.0001) %MON trcstat_ptracer36_min        =  -1.9602668964182E-22
(PID.TID 0000.0001) %MON trcstat_ptracer36_mean       =   1.4734697442506E-16
(PID.TID 0000.0001) %MON trcstat_ptracer36_sd         =   5.4427101944792E-16
(PID.TID 0000.0001) %MON trcstat_ptracer36_del2       =   1.7972456623128E-19
(PID.TID 0000.0001) // =======================================================
(PID.TID 0000.0001) // End MONITOR ptracer field statistics
(PID.TID 0000.0001) // =======================================================
 Computing Diagnostic #    183  TRAC01       Counter:       1   Parms: SMR     MR      
 Computing Diagnostic #    198  TRAC02       Counter:       1   Parms: SMR     MR      
 Computing Diagnostic #    213  TRAC03       Counter:       1   Parms: SMR     MR      
 Computing Diagnostic #    228  TRAC04       Counter:       1   Parms: SMR     MR      
 Computing Diagnostic #    243  TRAC05       Counter:       1   Parms: SMR     MR      
 Computing Diagnostic #    258  TRAC06       Counter:       1   Parms: SMR     MR      
 Computing Diagnostic #    273  TRAC07       Counter:       1   Parms: SMR     MR      
 Computing Diagnostic #    288  TRAC08       Counter:       1   Parms: SMR     MR      
 Computing Diagnostic #    303  TRAC09       Counter:       1   Parms: SMR     MR      
 Computing Diagnostic #    318  TRAC10       Counter:       1   Parms: SMR     MR      
 Computing Diagnostic #    333  TRAC11       Counter:       1   Parms: SMR     MR      
 Computing Diagnostic #    348  TRAC12       Counter:       1   Parms: SMR     MR      
 Computing Diagnostic #    363  TRAC13       Counter:       1   Parms: SMR     MR      
 Computing Diagnostic #    378  TRAC14       Counter:       1   Parms: SMR     MR      
 Computing Diagnostic #    393  TRAC15       Counter:       1   Parms: SMR     MR      
 Computing Diagnostic #    408  TRAC16       Counter:       1   Parms: SMR     MR      
 Computing Diagnostic #    423  TRAC17       Counter:       1   Parms: SMR     MR      
 Computing Diagnostic #    438  TRAC18       Counter:       1   Parms: SMR     MR      
 Computing Diagnostic #    453  TRAC19       Counter:       1   Parms: SMR     MR      
 Computing Diagnostic #    468  TRAC20       Counter:       1   Parms: SMR     MR      
 Computing Diagnostic #    483  TRAC21       Counter:       1   Parms: SMR     MR      
 Computing Diagnostic #    498  TRAC22       Counter:       1   Parms: SMR     MR      
 Computing Diagnostic #    513  TRAC23       Counter:       1   Parms: SMR     MR      
 Computing Diagnostic #    528  TRAC24       Counter:       1   Parms: SMR     MR      
 Computing Diagnostic #    543  TRAC25       Counter:       1   Parms: SMR     MR      
 Computing Diagnostic #    558  TRAC26       Counter:       1   Parms: SMR     MR      
 Computing Diagnostic #    573  TRAC27       Counter:       1   Parms: SMR     MR      
 Computing Diagnostic #    588  TRAC28       Counter:       1   Parms: SMR     MR      
 Computing Diagnostic #    603  TRAC29       Counter:       1   Parms: SMR     MR      
 Computing Diagnostic #    618  TRAC30       Counter:       1   Parms: SMR     MR      
 Computing Diagnostic #    633  TRAC31       Counter:       1   Parms: SMR     MR      
 Computing Diagnostic #    648  TRAC32       Counter:       1   Parms: SMR     MR      
 Computing Diagnostic #    663  TRAC33       Counter:       1   Parms: SMR     MR      
 Computing Diagnostic #    678  TRAC34       Counter:       1   Parms: SMR     MR      
 Computing Diagnostic #    693  TRAC35       Counter:       1   Parms: SMR     MR      
 Computing Diagnostic #    708  TRAC36       Counter:       1   Parms: SMR     MR      
 Computing Diagnostic #    990  PAR          Counter:       1   Parms: SM P    MR      
 Computing Diagnostic #    724  PP           Counter:       1   Parms: SM P    MR      
 Computing Diagnostic #    725  Nfix         Counter:       1   Parms: SM P    MR      
 Computing Diagnostic #    726  Denit        Counter:       1   Parms: SM P    MR      
 Computing Diagnostic #   1035  pH           Counter:       1   Parms: SM      MR      
 Computing Diagnostic #   1036  pCO2         Counter:       1   Parms: SM P    MR      
 Computing Diagnostic #    728  PC0001       Counter:       1   Parms: SM P    MR      
 Computing Diagnostic #    727  PChl0001     Counter:       1   Parms: SM P    MR      
 Computing Diagnostic #    729  VN0001       Counter:       1   Parms: SM P    MR      
 Computing Diagnostic #    730  MODE0001     Counter:       1   Parms: SM P    MR      
 Computing Diagnostic #    731  Fe_C0001     Counter:       1   Parms: SM P    MR      
 Computing Diagnostic #    732  exQc0001     Counter:       1   Parms: SM P    MR      
 Computing Diagnostic #    733  PCg0001      Counter:       1   Parms: SM P    MR      
 Computing Diagnostic #    734  CChl0001     Counter:       1   Parms: SM P    MR      
 Computing Diagnostic #    735  NChl0001     Counter:       1   Parms: SM P    MR      
 Computing Diagnostic #    736  NPho0001     Counter:       1   Parms: SM P    MR      
 Computing Diagnostic #    737  NSyn0001     Counter:       1   Parms: SM P    MR      
 Computing Diagnostic #    738  NPrn0001     Counter:       1   Parms: SM P    MR      
 Computing Diagnostic #    739  NRNA0001     Counter:       1   Parms: SM P    MR      
 Computing Diagnostic #    740  NDNA0001     Counter:       1   Parms: SM P    MR      
 Computing Diagnostic #    741  NSTO0001     Counter:       1   Parms: SM P    MR      
 Computing Diagnostic #    742  NEXC0001     Counter:       1   Parms: SM P    MR      
 Computing Diagnostic #    743  PRNA0001     Counter:       1   Parms: SM P    MR      
 Computing Diagnostic #    744  PDNA0001     Counter:       1   Parms: SM P    MR      
 Computing Diagnostic #    745  PTHY0001     Counter:       1   Parms: SM P    MR      
 Computing Diagnostic #    746  PCON0001     Counter:       1   Parms: SM P    MR      
 Computing Diagnostic #    747  PSTO0001     Counter:       1   Parms: SM P    MR      
 Computing Diagnostic #    748  PEXC0001     Counter:       1   Parms: SM P    MR      
 Computing Diagnostic #    749  FPHO0001     Counter:       1   Parms: SM P    MR      
 Computing Diagnostic #    750  FSTO0001     Counter:       1   Parms: SM P    MR      
 Computing Diagnostic #    751  FEXC0001     Counter:       1   Parms: SM P    MR      
 Computing Diagnostic #    759  CChl0002     Counter:       1   Parms: SM P    MR      
 Computing Diagnostic #    760  NChl0002     Counter:       1   Parms: SM P    MR      
 Computing Diagnostic #    761  NPho0002     Counter:       1   Parms: SM P    MR      
 Computing Diagnostic #    762  NSyn0002     Counter:       1   Parms: SM P    MR      
 Computing Diagnostic #    763  NPrn0002     Counter:       1   Parms: SM P    MR      
 Computing Diagnostic #    764  NRNA0002     Counter:       1   Parms: SM P    MR      
 Computing Diagnostic #    765  NDNA0002     Counter:       1   Parms: SM P    MR      
 Computing Diagnostic #    766  NSTO0002     Counter:       1   Parms: SM P    MR      
 Computing Diagnostic #    767  NEXC0002     Counter:       1   Parms: SM P    MR      
 Computing Diagnostic #    768  PRNA0002     Counter:       1   Parms: SM P    MR      
 Computing Diagnostic #    769  PDNA0002     Counter:       1   Parms: SM P    MR      
 Computing Diagnostic #    770  PTHY0002     Counter:       1   Parms: SM P    MR      
 Computing Diagnostic #    771  PCON0002     Counter:       1   Parms: SM P    MR      
 Computing Diagnostic #    772  PSTO0002     Counter:       1   Parms: SM P    MR      
 Computing Diagnostic #    773  PEXC0002     Counter:       1   Parms: SM P    MR      
 Computing Diagnostic #    774  FPHO0002     Counter:       1   Parms: SM P    MR      
 Computing Diagnostic #    775  FSTO0002     Counter:       1   Parms: SM P    MR      
 Computing Diagnostic #    776  FEXC0002     Counter:       1   Parms: SM P    MR      
 Computing Diagnostic #    753  PC0002       Counter:       1   Parms: SM P    MR      
 Computing Diagnostic #    752  PChl0002     Counter:       1   Parms: SM P    MR      
 Computing Diagnostic #    754  VN0002       Counter:       1   Parms: SM P    MR      
 Computing Diagnostic #    755  MODE0002     Counter:       1   Parms: SM P    MR      
 Computing Diagnostic #    756  Fe_C0002     Counter:       1   Parms: SM P    MR      
 Computing Diagnostic #    757  exQc0002     Counter:       1   Parms: SM P    MR      
 Computing Diagnostic #    758  PCg0002      Counter:       1   Parms: SM P    MR      
(PID.TID 0000.0001) // =======================================================
(PID.TID 0000.0001) // Begin MONITOR EXF statistics
(PID.TID 0000.0001) // =======================================================
(PID.TID 0000.0001) %MON exf_tsnumber                 =                     2
(PID.TID 0000.0001) %MON exf_time_sec                 =   7.2000000000000E+03
(PID.TID 0000.0001) %MON exf_ustress_max              =   0.0000000000000E+00
(PID.TID 0000.0001) %MON exf_ustress_min              =   0.0000000000000E+00
(PID.TID 0000.0001) %MON exf_ustress_mean             =   0.0000000000000E+00
(PID.TID 0000.0001) %MON exf_ustress_sd               =   0.0000000000000E+00
(PID.TID 0000.0001) %MON exf_ustress_del2             =   0.0000000000000E+00
(PID.TID 0000.0001) %MON exf_vstress_max              =   0.0000000000000E+00
(PID.TID 0000.0001) %MON exf_vstress_min              =   0.0000000000000E+00
(PID.TID 0000.0001) %MON exf_vstress_mean             =   0.0000000000000E+00
(PID.TID 0000.0001) %MON exf_vstress_sd               =   0.0000000000000E+00
(PID.TID 0000.0001) %MON exf_vstress_del2             =   0.0000000000000E+00
(PID.TID 0000.0001) %MON exf_hflux_max                =   0.0000000000000E+00
(PID.TID 0000.0001) %MON exf_hflux_min                =   0.0000000000000E+00
(PID.TID 0000.0001) %MON exf_hflux_mean               =   0.0000000000000E+00
(PID.TID 0000.0001) %MON exf_hflux_sd                 =   0.0000000000000E+00
(PID.TID 0000.0001) %MON exf_hflux_del2               =   0.0000000000000E+00
(PID.TID 0000.0001) %MON exf_sflux_max                =   0.0000000000000E+00
(PID.TID 0000.0001) %MON exf_sflux_min                =   0.0000000000000E+00
(PID.TID 0000.0001) %MON exf_sflux_mean               =   0.0000000000000E+00
(PID.TID 0000.0001) %MON exf_sflux_sd                 =   0.0000000000000E+00
(PID.TID 0000.0001) %MON exf_sflux_del2               =   0.0000000000000E+00
(PID.TID 0000.0001) %MON exf_uwind_max                =   0.0000000000000E+00
(PID.TID 0000.0001) %MON exf_uwind_min                =   0.0000000000000E+00
(PID.TID 0000.0001) %MON exf_uwind_mean               =   0.0000000000000E+00
(PID.TID 0000.0001) %MON exf_uwind_sd                 =   0.0000000000000E+00
(PID.TID 0000.0001) %MON exf_uwind_del2               =   0.0000000000000E+00
(PID.TID 0000.0001) %MON exf_vwind_max                =   0.0000000000000E+00
(PID.TID 0000.0001) %MON exf_vwind_min                =   0.0000000000000E+00
(PID.TID 0000.0001) %MON exf_vwind_mean               =   0.0000000000000E+00
(PID.TID 0000.0001) %MON exf_vwind_sd                 =   0.0000000000000E+00
(PID.TID 0000.0001) %MON exf_vwind_del2               =   0.0000000000000E+00
(PID.TID 0000.0001) %MON exf_wspeed_max               =   0.0000000000000E+00
(PID.TID 0000.0001) %MON exf_wspeed_min               =   0.0000000000000E+00
(PID.TID 0000.0001) %MON exf_wspeed_mean              =   0.0000000000000E+00
(PID.TID 0000.0001) %MON exf_wspeed_sd                =   0.0000000000000E+00
(PID.TID 0000.0001) %MON exf_wspeed_del2              =   0.0000000000000E+00
(PID.TID 0000.0001) %MON exf_evap_max                 =   0.0000000000000E+00
(PID.TID 0000.0001) %MON exf_evap_min                 =   0.0000000000000E+00
(PID.TID 0000.0001) %MON exf_evap_mean                =   0.0000000000000E+00
(PID.TID 0000.0001) %MON exf_evap_sd                  =   0.0000000000000E+00
(PID.TID 0000.0001) %MON exf_evap_del2                =   0.0000000000000E+00
(PID.TID 0000.0001) // =======================================================
(PID.TID 0000.0001) // End MONITOR EXF statistics
(PID.TID 0000.0001) // =======================================================
(PID.TID 0000.0001) // =======================================================
(PID.TID 0000.0001) // Begin MONITOR GUD statistics
(PID.TID 0000.0001) // =======================================================
(PID.TID 0000.0001) %MON gud_tsnumber                 =                     2
(PID.TID 0000.0001) %MON gud_time_sec                 =   7.2000000000000E+03
(PID.TID 0000.0001) %MON gud_OASIMEd01_max            =   2.7637284742461E+00
(PID.TID 0000.0001) %MON gud_OASIMEd01_min            =   2.5805624244796E-37
(PID.TID 0000.0001) %MON gud_OASIMEd01_mean           =   9.5092868990735E-01
(PID.TID 0000.0001) %MON gud_OASIMEd01_sd             =   6.8303369555608E-01
(PID.TID 0000.0001) %MON gud_OASIMEd01_del2           =   2.4632695903911E-03
(PID.TID 0000.0001) %MON gud_OASIMEd02_max            =   7.1660794470045E+00
(PID.TID 0000.0001) %MON gud_OASIMEd02_min            =   5.1611248489592E-37
(PID.TID 0000.0001) %MON gud_OASIMEd02_mean           =   2.4689009011123E+00
(PID.TID 0000.0001) %MON gud_OASIMEd02_sd             =   1.7473022053043E+00
(PID.TID 0000.0001) %MON gud_OASIMEd02_del2           =   6.3561148051334E-03
(PID.TID 0000.0001) %MON gud_OASIMEd03_max            =   8.7421509477827E+00
(PID.TID 0000.0001) %MON gud_OASIMEd03_min            =   5.1611248489592E-37
(PID.TID 0000.0001) %MON gud_OASIMEd03_mean           =   2.9979627548304E+00
(PID.TID 0000.0001) %MON gud_OASIMEd03_sd             =   2.1077351096550E+00
(PID.TID 0000.0001) %MON gud_OASIMEd03_del2           =   7.6904123388857E-03
(PID.TID 0000.0001) %MON gud_OASIMEd04_max            =   9.2548017104467E+00
(PID.TID 0000.0001) %MON gud_OASIMEd04_min            =   5.1611248489592E-37
(PID.TID 0000.0001) %MON gud_OASIMEd04_mean           =   3.1841221634436E+00
(PID.TID 0000.0001) %MON gud_OASIMEd04_sd             =   2.2163829120503E+00
(PID.TID 0000.0001) %MON gud_OASIMEd04_del2           =   8.1352639155028E-03
(PID.TID 0000.0001) %MON gud_OASIMEd05_max            =   9.3292856560813E+00
(PID.TID 0000.0001) %MON gud_OASIMEd05_min            =   5.1611255178457E-37
(PID.TID 0000.0001) %MON gud_OASIMEd05_mean           =   3.2176144085027E+00
(PID.TID 0000.0001) %MON gud_OASIMEd05_sd             =   2.2195829802480E+00
(PID.TID 0000.0001) %MON gud_OASIMEd05_del2           =   8.1915754076778E-03
(PID.TID 0000.0001) %MON gud_OASIMEd06_max            =   9.1606693082386E+00
(PID.TID 0000.0001) %MON gud_OASIMEd06_min            =   5.1611257408078E-37
(PID.TID 0000.0001) %MON gud_OASIMEd06_mean           =   3.1758818780260E+00
(PID.TID 0000.0001) %MON gud_OASIMEd06_sd             =   2.1771173695480E+00
(PID.TID 0000.0001) %MON gud_OASIMEd06_del2           =   8.0649002910741E-03
(PID.TID 0000.0001) %MON gud_OASIMEd07_max            =   9.2898615095350E+00
(PID.TID 0000.0001) %MON gud_OASIMEd07_min            =   5.1611259637700E-37
(PID.TID 0000.0001) %MON gud_OASIMEd07_mean           =   3.2278426549772E+00
(PID.TID 0000.0001) %MON gud_OASIMEd07_sd             =   2.2032491923760E+00
(PID.TID 0000.0001) %MON gud_OASIMEd07_del2           =   8.1812902566283E-03
(PID.TID 0000.0001) %MON gud_OASIMEd08_max            =   9.1957852151659E+00
(PID.TID 0000.0001) %MON gud_OASIMEd08_min            =   5.1611268556186E-37
(PID.TID 0000.0001) %MON gud_OASIMEd08_mean           =   3.1813748285323E+00
(PID.TID 0000.0001) %MON gud_OASIMEd08_sd             =   2.1655109113033E+00
(PID.TID 0000.0001) %MON gud_OASIMEd08_del2           =   8.0522679074737E-03
(PID.TID 0000.0001) %MON gud_OASIMEd09_max            =   8.7383647653792E+00
(PID.TID 0000.0001) %MON gud_OASIMEd09_min            =   5.1611315378239E-37
(PID.TID 0000.0001) %MON gud_OASIMEd09_mean           =   3.0233080504567E+00
(PID.TID 0000.0001) %MON gud_OASIMEd09_sd             =   2.0484331816934E+00
(PID.TID 0000.0001) %MON gud_OASIMEd09_del2           =   7.6403069010250E-03
(PID.TID 0000.0001) %MON gud_OASIMEd10_max            =   8.6712094068527E+00
(PID.TID 0000.0001) %MON gud_OASIMEd10_min            =   5.1611353281805E-37
(PID.TID 0000.0001) %MON gud_OASIMEd10_mean           =   3.0170026048276E+00
(PID.TID 0000.0001) %MON gud_OASIMEd10_sd             =   2.0392289781647E+00
(PID.TID 0000.0001) %MON gud_OASIMEd10_del2           =   7.6145107469141E-03
(PID.TID 0000.0001) %MON gud_OASIMEd11_max            =   8.2022061440680E+00
(PID.TID 0000.0001) %MON gud_OASIMEd11_min            =   5.1611388955750E-37
(PID.TID 0000.0001) %MON gud_OASIMEd11_mean           =   2.8458294025750E+00
(PID.TID 0000.0001) %MON gud_OASIMEd11_sd             =   1.9152370195328E+00
(PID.TID 0000.0001) %MON gud_OASIMEd11_del2           =   7.1715366565825E-03
(PID.TID 0000.0001) %MON gud_OASIMEd12_max            =   7.4828342384762E+00
(PID.TID 0000.0001) %MON gud_OASIMEd12_min            =   5.1611411251966E-37
(PID.TID 0000.0001) %MON gud_OASIMEd12_mean           =   2.5979640092980E+00
(PID.TID 0000.0001) %MON gud_OASIMEd12_sd             =   1.7522167819835E+00
(PID.TID 0000.0001) %MON gud_OASIMEd12_del2           =   6.5476005981198E-03
(PID.TID 0000.0001) %MON gud_OASIMEd13_max            =   3.6970879971981E+00
(PID.TID 0000.0001) %MON gud_OASIMEd13_min            =   5.1611482599856E-37
(PID.TID 0000.0001) %MON gud_OASIMEd13_mean           =   1.2781497841594E+00
(PID.TID 0000.0001) %MON gud_OASIMEd13_sd             =   8.5793110860680E-01
(PID.TID 0000.0001) %MON gud_OASIMEd13_del2           =   3.2167215177480E-03
(PID.TID 0000.0001) %MON gud_OASIMEs01_max            =   2.9258111357689E+00
(PID.TID 0000.0001) %MON gud_OASIMEs01_min            =   4.6922186212765E-37
(PID.TID 0000.0001) %MON gud_OASIMEs01_mean           =   1.9221746632549E+00
(PID.TID 0000.0001) %MON gud_OASIMEs01_sd             =   7.2412774530946E-01
(PID.TID 0000.0001) %MON gud_OASIMEs01_del2           =   4.6543195759681E-03
(PID.TID 0000.0001) %MON gud_OASIMEs02_max            =   6.9803641438484E+00
(PID.TID 0000.0001) %MON gud_OASIMEs02_min            =   9.3844372425531E-37
(PID.TID 0000.0001) %MON gud_OASIMEs02_mean           =   4.5356933602832E+00
(PID.TID 0000.0001) %MON gud_OASIMEs02_sd             =   1.7198676985347E+00
(PID.TID 0000.0001) %MON gud_OASIMEs02_del2           =   1.1007452798249E-02
(PID.TID 0000.0001) %MON gud_OASIMEs03_max            =   8.0268582993084E+00
(PID.TID 0000.0001) %MON gud_OASIMEs03_min            =   9.3844372425531E-37
(PID.TID 0000.0001) %MON gud_OASIMEs03_mean           =   5.1679713638116E+00
(PID.TID 0000.0001) %MON gud_OASIMEs03_sd             =   1.9758783513495E+00
(PID.TID 0000.0001) %MON gud_OASIMEs03_del2           =   1.2529087620429E-02
(PID.TID 0000.0001) %MON gud_OASIMEs04_max            =   8.0644462956323E+00
(PID.TID 0000.0001) %MON gud_OASIMEs04_min            =   9.3844376884774E-37
(PID.TID 0000.0001) %MON gud_OASIMEs04_mean           =   5.1505628828687E+00
(PID.TID 0000.0001) %MON gud_OASIMEs04_sd             =   1.9824034397960E+00
(PID.TID 0000.0001) %MON gud_OASIMEs04_del2           =   1.2509406342943E-02
(PID.TID 0000.0001) %MON gud_OASIMEs05_max            =   7.7762885941399E+00
(PID.TID 0000.0001) %MON gud_OASIMEs05_min            =   9.3844381344017E-37
(PID.TID 0000.0001) %MON gud_OASIMEs05_mean           =   4.9329652975189E+00
(PID.TID 0000.0001) %MON gud_OASIMEs05_sd             =   1.9117838647878E+00
(PID.TID 0000.0001) %MON gud_OASIMEs05_del2           =   1.2010598671493E-02
(PID.TID 0000.0001) %MON gud_OASIMEs06_max            =   7.3730856087473E+00
(PID.TID 0000.0001) %MON gud_OASIMEs06_min            =   9.3844394721746E-37
(PID.TID 0000.0001) %MON gud_OASIMEs06_mean           =   4.6470934767429E+00
(PID.TID 0000.0001) %MON gud_OASIMEs06_sd             =   1.8163737235821E+00
(PID.TID 0000.0001) %MON gud_OASIMEs06_del2           =   1.1333308081850E-02
(PID.TID 0000.0001) %MON gud_OASIMEs07_max            =   7.2590486778153E+00
(PID.TID 0000.0001) %MON gud_OASIMEs07_min            =   9.3844403640233E-37
(PID.TID 0000.0001) %MON gud_OASIMEs07_mean           =   4.5511364623837E+00
(PID.TID 0000.0001) %MON gud_OASIMEs07_sd             =   1.7937625324318E+00
(PID.TID 0000.0001) %MON gud_OASIMEs07_del2           =   1.1114594670327E-02
(PID.TID 0000.0001) %MON gud_OASIMEs08_max            =   7.0180817815993E+00
(PID.TID 0000.0001) %MON gud_OASIMEs08_min            =   9.3844421477205E-37
(PID.TID 0000.0001) %MON gud_OASIMEs08_mean           =   4.3710259929405E+00
(PID.TID 0000.0001) %MON gud_OASIMEs08_sd             =   1.7376609272396E+00
(PID.TID 0000.0001) %MON gud_OASIMEs08_del2           =   1.0693484093154E-02
(PID.TID 0000.0001) %MON gud_OASIMEs09_max            =   6.5689779202143E+00
(PID.TID 0000.0001) %MON gud_OASIMEs09_min            =   9.3844497284338E-37
(PID.TID 0000.0001) %MON gud_OASIMEs09_mean           =   4.0587069931546E+00
(PID.TID 0000.0001) %MON gud_OASIMEs09_sd             =   1.6230513733695E+00
(PID.TID 0000.0001) %MON gud_OASIMEs09_del2           =   9.9555021524134E-03
(PID.TID 0000.0001) %MON gud_OASIMEs10_max            =   6.4141246265835E+00
(PID.TID 0000.0001) %MON gud_OASIMEs10_min            =   9.3844550795255E-37
(PID.TID 0000.0001) %MON gud_OASIMEs10_mean           =   3.9763235648846E+00
(PID.TID 0000.0001) %MON gud_OASIMEs10_sd             =   1.5879867881780E+00
(PID.TID 0000.0001) %MON gud_OASIMEs10_del2           =   9.7391138359682E-03
(PID.TID 0000.0001) %MON gud_OASIMEs11_max            =   6.0375373906559E+00
(PID.TID 0000.0001) %MON gud_OASIMEs11_min            =   9.3844590928443E-37
(PID.TID 0000.0001) %MON gud_OASIMEs11_mean           =   3.7217897761414E+00
(PID.TID 0000.0001) %MON gud_OASIMEs11_sd             =   1.4842693810004E+00
(PID.TID 0000.0001) %MON gud_OASIMEs11_del2           =   9.1186162097386E-03
(PID.TID 0000.0001) %MON gud_OASIMEs12_max            =   5.4182619425986E+00
(PID.TID 0000.0001) %MON gud_OASIMEs12_min            =   9.3844648898604E-37
(PID.TID 0000.0001) %MON gud_OASIMEs12_mean           =   3.3338885308365E+00
(PID.TID 0000.0001) %MON gud_OASIMEs12_sd             =   1.3448406545608E+00
(PID.TID 0000.0001) %MON gud_OASIMEs12_del2           =   8.1720586925770E-03
(PID.TID 0000.0001) %MON gud_OASIMEs13_max            =   2.6721567862564E+00
(PID.TID 0000.0001) %MON gud_OASIMEs13_min            =   9.3844742542709E-37
(PID.TID 0000.0001) %MON gud_OASIMEs13_mean           =   1.6316543350563E+00
(PID.TID 0000.0001) %MON gud_OASIMEs13_sd             =   6.5789657666423E-01
(PID.TID 0000.0001) %MON gud_OASIMEs13_del2           =   4.0068592194898E-03
(PID.TID 0000.0001) %MON gud_surfPAR_max              =   0.0000000000000E+00
(PID.TID 0000.0001) %MON gud_surfPAR_min              =   0.0000000000000E+00
(PID.TID 0000.0001) %MON gud_surfPAR_mean             =   0.0000000000000E+00
(PID.TID 0000.0001) %MON gud_surfPAR_sd               =   0.0000000000000E+00
(PID.TID 0000.0001) %MON gud_surfPAR_del2             =   0.0000000000000E+00
(PID.TID 0000.0001) %MON gud_inputFe_max              =   4.8131532722102E-09
(PID.TID 0000.0001) %MON gud_inputFe_min              =   7.4766410819824E-12
(PID.TID 0000.0001) %MON gud_inputFe_mean             =   4.3471115237579E-10
(PID.TID 0000.0001) %MON gud_inputFe_sd               =   5.1796468130503E-10
(PID.TID 0000.0001) %MON gud_inputFe_del2             =   1.4001774315134E-12
(PID.TID 0000.0001) %MON gud_iceFrac_max              =   1.0000000000000E+00
(PID.TID 0000.0001) %MON gud_iceFrac_min              =   0.0000000000000E+00
(PID.TID 0000.0001) %MON gud_iceFrac_mean             =   6.0942554454302E-03
(PID.TID 0000.0001) %MON gud_iceFrac_sd               =   6.6045672487107E-02
(PID.TID 0000.0001) %MON gud_iceFrac_del2             =   3.5299757906023E-04
(PID.TID 0000.0001) %MON gud_windSpeed_max            =   1.4271455049515E+01
(PID.TID 0000.0001) %MON gud_windSpeed_min            =   2.1542999247710E+00
(PID.TID 0000.0001) %MON gud_windSpeed_mean           =   7.6790597684210E+00
(PID.TID 0000.0001) %MON gud_windSpeed_sd             =   2.3580324283058E+00
(PID.TID 0000.0001) %MON gud_windSpeed_del2           =   1.8891870861897E-02
(PID.TID 0000.0001) %MON gud_atmospCO2_max            =   2.7800000000000E-04
(PID.TID 0000.0001) %MON gud_atmospCO2_min            =   2.7800000000000E-04
(PID.TID 0000.0001) %MON gud_atmospCO2_mean           =   2.7800000000000E-04
(PID.TID 0000.0001) %MON gud_atmospCO2_sd             =   5.4210108624275E-19
(PID.TID 0000.0001) %MON gud_atmospCO2_del2           =   0.0000000000000E+00
(PID.TID 0000.0001) // =======================================================
(PID.TID 0000.0001) // End MONITOR GUD statistics
(PID.TID 0000.0001) // =======================================================
(PID.TID 0000.0001) // =======================================================
(PID.TID 0000.0001) // Begin MONITOR dynamic field statistics
(PID.TID 0000.0001) // =======================================================
(PID.TID 0000.0001) %MON time_tsnumber                =                     3
(PID.TID 0000.0001) %MON time_secondsf                =   1.0800000000000E+04
(PID.TID 0000.0001) %MON dynstat_eta_max              =   0.0000000000000E+00
(PID.TID 0000.0001) %MON dynstat_eta_min              =   0.0000000000000E+00
(PID.TID 0000.0001) %MON dynstat_eta_mean             =   0.0000000000000E+00
(PID.TID 0000.0001) %MON dynstat_eta_sd               =   0.0000000000000E+00
(PID.TID 0000.0001) %MON dynstat_eta_del2             =   0.0000000000000E+00
(PID.TID 0000.0001) %MON dynstat_uvel_max             =   7.8500951081514E-01
(PID.TID 0000.0001) %MON dynstat_uvel_min             =  -8.1677708774805E-01
(PID.TID 0000.0001) %MON dynstat_uvel_mean            =   2.3319899558026E-03
(PID.TID 0000.0001) %MON dynstat_uvel_sd              =   2.2851955347877E-02
(PID.TID 0000.0001) %MON dynstat_uvel_del2            =   2.5488694676996E-05
(PID.TID 0000.0001) %MON dynstat_vvel_max             =   1.2975457906723E+00
(PID.TID 0000.0001) %MON dynstat_vvel_min             =  -8.7210071552545E-01
(PID.TID 0000.0001) %MON dynstat_vvel_mean            =  -1.7067523626691E-05
(PID.TID 0000.0001) %MON dynstat_vvel_sd              =   1.1668763447104E-02
(PID.TID 0000.0001) %MON dynstat_vvel_del2            =   2.3682690608333E-05
(PID.TID 0000.0001) %MON dynstat_wvel_max             =   5.2057552784390E-04
(PID.TID 0000.0001) %MON dynstat_wvel_min             =  -6.2682385032531E-04
(PID.TID 0000.0001) %MON dynstat_wvel_mean            =   2.1811717702129E-14
(PID.TID 0000.0001) %MON dynstat_wvel_sd              =   1.0274595867304E-05
(PID.TID 0000.0001) %MON dynstat_wvel_del2            =   1.8906708750008E-08
(PID.TID 0000.0001) %MON dynstat_theta_max            =   3.1811811208725E+01
(PID.TID 0000.0001) %MON dynstat_theta_min            =  -2.6705707013607E+00
(PID.TID 0000.0001) %MON dynstat_theta_mean           =   3.6068704244703E+00
(PID.TID 0000.0001) %MON dynstat_theta_sd             =   4.4528579640392E+00
(PID.TID 0000.0001) %MON dynstat_theta_del2           =   3.6279631749898E-04
(PID.TID 0000.0001) %MON dynstat_salt_max             =   3.9533718109131E+01
(PID.TID 0000.0001) %MON dynstat_salt_min             =   2.6509908676147E+01
(PID.TID 0000.0001) %MON dynstat_salt_mean            =   3.4722156720416E+01
(PID.TID 0000.0001) %MON dynstat_salt_sd              =   3.6501661205502E-01
(PID.TID 0000.0001) %MON dynstat_salt_del2            =   6.9285532272240E-05
(PID.TID 0000.0001) %MON dynstat_sst_max              =   3.1811811208725E+01
(PID.TID 0000.0001) %MON dynstat_sst_min              =  -1.9905042946339E+00
(PID.TID 0000.0001) %MON dynstat_sst_mean             =   1.9168948025842E+01
(PID.TID 0000.0001) %MON dynstat_sst_sd               =   9.5447125080671E+00
(PID.TID 0000.0001) %MON dynstat_sst_del2             =   2.1724405943826E-03
(PID.TID 0000.0001) %MON dynstat_sss_max              =   3.9533718109131E+01
(PID.TID 0000.0001) %MON dynstat_sss_min              =   2.6509908676147E+01
(PID.TID 0000.0001) %MON dynstat_sss_mean             =   3.4861274121728E+01
(PID.TID 0000.0001) %MON dynstat_sss_sd               =   1.0801334850452E+00
(PID.TID 0000.0001) %MON dynstat_sss_del2             =   5.9642749467312E-04
(PID.TID 0000.0001) %MON forcing_qnet_max             =   0.0000000000000E+00
(PID.TID 0000.0001) %MON forcing_qnet_min             =   0.0000000000000E+00
(PID.TID 0000.0001) %MON forcing_qnet_mean            =   0.0000000000000E+00
(PID.TID 0000.0001) %MON forcing_qnet_sd              =   0.0000000000000E+00
(PID.TID 0000.0001) %MON forcing_qnet_del2            =   0.0000000000000E+00
(PID.TID 0000.0001) %MON forcing_qsw_max              =   0.0000000000000E+00
(PID.TID 0000.0001) %MON forcing_qsw_min              =   0.0000000000000E+00
(PID.TID 0000.0001) %MON forcing_qsw_mean             =   0.0000000000000E+00
(PID.TID 0000.0001) %MON forcing_qsw_sd               =   0.0000000000000E+00
(PID.TID 0000.0001) %MON forcing_qsw_del2             =   0.0000000000000E+00
(PID.TID 0000.0001) %MON forcing_empmr_max            =   0.0000000000000E+00
(PID.TID 0000.0001) %MON forcing_empmr_min            =   0.0000000000000E+00
(PID.TID 0000.0001) %MON forcing_empmr_mean           =   0.0000000000000E+00
(PID.TID 0000.0001) %MON forcing_empmr_sd             =   0.0000000000000E+00
(PID.TID 0000.0001) %MON forcing_empmr_del2           =   0.0000000000000E+00
(PID.TID 0000.0001) %MON forcing_fu_max               =   0.0000000000000E+00
(PID.TID 0000.0001) %MON forcing_fu_min               =   0.0000000000000E+00
(PID.TID 0000.0001) %MON forcing_fu_mean              =   0.0000000000000E+00
(PID.TID 0000.0001) %MON forcing_fu_sd                =   0.0000000000000E+00
(PID.TID 0000.0001) %MON forcing_fu_del2              =   0.0000000000000E+00
(PID.TID 0000.0001) %MON forcing_fv_max               =   0.0000000000000E+00
(PID.TID 0000.0001) %MON forcing_fv_min               =   0.0000000000000E+00
(PID.TID 0000.0001) %MON forcing_fv_mean              =   0.0000000000000E+00
(PID.TID 0000.0001) %MON forcing_fv_sd                =   0.0000000000000E+00
(PID.TID 0000.0001) %MON forcing_fv_del2              =   0.0000000000000E+00
(PID.TID 0000.0001) %MON trAdv_CFL_u_max              =   4.4337443033886E-02
(PID.TID 0000.0001) %MON trAdv_CFL_v_max              =   4.3591866208711E-02
(PID.TID 0000.0001) %MON trAdv_CFL_w_max              =   7.0458909322042E-02
(PID.TID 0000.0001) %MON advcfl_uvel_max              =   4.3017102930156E-02
(PID.TID 0000.0001) %MON advcfl_vvel_max              =   4.2015389499177E-02
(PID.TID 0000.0001) %MON advcfl_wvel_max              =   8.3292084455024E-02
(PID.TID 0000.0001) %MON advcfl_W_hf_max              =   9.3703595011903E-02
(PID.TID 0000.0001) %MON pe_b_mean                    =   0.0000000000000E+00
(PID.TID 0000.0001) %MON ke_max                       =   6.8335447069308E-01
(PID.TID 0000.0001) %MON ke_mean                      =   3.1834613624378E-04
(PID.TID 0000.0001) %MON ke_vol                       =   1.3258927395736E+18
(PID.TID 0000.0001) %MON vort_r_min                   =  -1.3250010937637E-05
(PID.TID 0000.0001) %MON vort_r_max                   =   1.5933204468912E-05
(PID.TID 0000.0001) %MON vort_a_mean                  =  -2.1443554611098E-05
(PID.TID 0000.0001) %MON vort_a_sd                    =   7.3250397729609E-05
(PID.TID 0000.0001) %MON vort_p_mean                  =  -2.3136237666214E-05
(PID.TID 0000.0001) %MON vort_p_sd                    =   8.5528169644786E-05
(PID.TID 0000.0001) %MON surfExpan_theta_mean         =  -5.5139914822221E-08
(PID.TID 0000.0001) %MON surfExpan_salt_mean          =   6.9811319503682E-09
(PID.TID 0000.0001) // =======================================================
(PID.TID 0000.0001) // End MONITOR dynamic field statistics
(PID.TID 0000.0001) // =======================================================
(PID.TID 0000.0001) // =======================================================
(PID.TID 0000.0001) // Begin MONITOR ptracer field statistics
(PID.TID 0000.0001) // =======================================================
(PID.TID 0000.0001) %MON trcstat_ptracer01_max        =   2.4130827142971E+03
(PID.TID 0000.0001) %MON trcstat_ptracer01_min        =   1.7246014016484E+03
(PID.TID 0000.0001) %MON trcstat_ptracer01_mean       =   2.2529364799462E+03
(PID.TID 0000.0001) %MON trcstat_ptracer01_sd         =   8.1245223393551E+01
(PID.TID 0000.0001) %MON trcstat_ptracer01_del2       =   8.7552353951056E-03
(PID.TID 0000.0001) %MON trcstat_ptracer02_max        =   1.1854616866615E+01
(PID.TID 0000.0001) %MON trcstat_ptracer02_min        =  -5.8185953101996E-08
(PID.TID 0000.0001) %MON trcstat_ptracer02_mean       =   5.5634540702615E-02
(PID.TID 0000.0001) %MON trcstat_ptracer02_sd         =   4.7077197193908E-01
(PID.TID 0000.0001) %MON trcstat_ptracer02_del2       =   3.2030904736294E-04
(PID.TID 0000.0001) %MON trcstat_ptracer03_max        =   6.8312194514892E+00
(PID.TID 0000.0001) %MON trcstat_ptracer03_min        =  -4.2946273274279E-09
(PID.TID 0000.0001) %MON trcstat_ptracer03_mean       =   1.9935834234892E-02
(PID.TID 0000.0001) %MON trcstat_ptracer03_sd         =   1.4774807953303E-01
(PID.TID 0000.0001) %MON trcstat_ptracer03_del2       =   2.1757338403092E-04
(PID.TID 0000.0001) %MON trcstat_ptracer04_max        =   4.4621900788486E+01
(PID.TID 0000.0001) %MON trcstat_ptracer04_min        =  -3.5814604651421E-01
(PID.TID 0000.0001) %MON trcstat_ptracer04_mean       =   3.0605198893133E+01
(PID.TID 0000.0001) %MON trcstat_ptracer04_sd         =   9.0652007540629E+00
(PID.TID 0000.0001) %MON trcstat_ptracer04_del2       =   7.4467917163406E-04
(PID.TID 0000.0001) %MON trcstat_ptracer05_max        =   3.6470233364992E+00
(PID.TID 0000.0001) %MON trcstat_ptracer05_min        =   8.8171349491015E-02
(PID.TID 0000.0001) %MON trcstat_ptracer05_mean       =   2.1762795952037E+00
(PID.TID 0000.0001) %MON trcstat_ptracer05_sd         =   6.2491010552472E-01
(PID.TID 0000.0001) %MON trcstat_ptracer05_del2       =   4.5955459509496E-05
(PID.TID 0000.0001) %MON trcstat_ptracer06_max        =   2.7521245273507E+02
(PID.TID 0000.0001) %MON trcstat_ptracer06_min        =   1.1357135063165E+00
(PID.TID 0000.0001) %MON trcstat_ptracer06_mean       =   9.0930634122011E+01
(PID.TID 0000.0001) %MON trcstat_ptracer06_sd         =   5.1624206708816E+01
(PID.TID 0000.0001) %MON trcstat_ptracer06_del2       =   1.3893616701325E-03
(PID.TID 0000.0001) %MON trcstat_ptracer07_max        =   1.0779068623124E-03
(PID.TID 0000.0001) %MON trcstat_ptracer07_min        =  -1.8141054577315E-06
(PID.TID 0000.0001) %MON trcstat_ptracer07_mean       =   6.3292928097272E-04
(PID.TID 0000.0001) %MON trcstat_ptracer07_sd         =   2.0823982990100E-04
(PID.TID 0000.0001) %MON trcstat_ptracer07_del2       =   1.0298990925624E-07
(PID.TID 0000.0001) %MON trcstat_ptracer08_max        =   2.9316630533627E+02
(PID.TID 0000.0001) %MON trcstat_ptracer08_min        =   8.1812738228167E-08
(PID.TID 0000.0001) %MON trcstat_ptracer08_mean       =   2.2743963201612E-01
(PID.TID 0000.0001) %MON trcstat_ptracer08_sd         =   1.7859115764664E+00
(PID.TID 0000.0001) %MON trcstat_ptracer08_del2       =   2.8925651771153E-03
(PID.TID 0000.0001) %MON trcstat_ptracer09_max        =   3.9089467932872E+01
(PID.TID 0000.0001) %MON trcstat_ptracer09_min        =  -3.0438614416894E-08
(PID.TID 0000.0001) %MON trcstat_ptracer09_mean       =   2.3907083355358E-02
(PID.TID 0000.0001) %MON trcstat_ptracer09_sd         =   1.4688275552368E-01
(PID.TID 0000.0001) %MON trcstat_ptracer09_del2       =   1.2757754524879E-04
(PID.TID 0000.0001) %MON trcstat_ptracer10_max        =   2.3037780599517E+00
(PID.TID 0000.0001) %MON trcstat_ptracer10_min        =   3.3533241958217E-10
(PID.TID 0000.0001) %MON trcstat_ptracer10_mean       =   1.6514313949084E-03
(PID.TID 0000.0001) %MON trcstat_ptracer10_sd         =   1.0435397161568E-02
(PID.TID 0000.0001) %MON trcstat_ptracer10_del2       =   9.0839959759987E-06
(PID.TID 0000.0001) %MON trcstat_ptracer11_max        =   1.1180668183700E-02
(PID.TID 0000.0001) %MON trcstat_ptracer11_min        =   1.8135614095495E-11
(PID.TID 0000.0001) %MON trcstat_ptracer11_mean       =   1.3262559730760E-05
(PID.TID 0000.0001) %MON trcstat_ptracer11_sd         =   8.8361605962290E-05
(PID.TID 0000.0001) %MON trcstat_ptracer11_del2       =   8.9187886527798E-08
(PID.TID 0000.0001) %MON trcstat_ptracer12_max        =   1.0788702537929E+03
(PID.TID 0000.0001) %MON trcstat_ptracer12_min        =   2.6652801951150E-09
(PID.TID 0000.0001) %MON trcstat_ptracer12_mean       =   3.0130310537396E-02
(PID.TID 0000.0001) %MON trcstat_ptracer12_sd         =   1.6482420086030E+00
(PID.TID 0000.0001) %MON trcstat_ptracer12_del2       =   1.5551857160792E-04
(PID.TID 0000.0001) %MON trcstat_ptracer13_max        =   1.5258259119692E+02
(PID.TID 0000.0001) %MON trcstat_ptracer13_min        =   1.8145756830663E-10
(PID.TID 0000.0001) %MON trcstat_ptracer13_mean       =   3.7093815946638E-03
(PID.TID 0000.0001) %MON trcstat_ptracer13_sd         =   2.3419782882837E-01
(PID.TID 0000.0001) %MON trcstat_ptracer13_del2       =   2.2791948224797E-05
(PID.TID 0000.0001) %MON trcstat_ptracer14_max        =   9.1174337773250E+00
(PID.TID 0000.0001) %MON trcstat_ptracer14_min        =   1.3895840368855E-11
(PID.TID 0000.0001) %MON trcstat_ptracer14_mean       =   2.4174041402323E-04
(PID.TID 0000.0001) %MON trcstat_ptracer14_sd         =   1.3793693718219E-02
(PID.TID 0000.0001) %MON trcstat_ptracer14_del2       =   1.3406079157168E-06
(PID.TID 0000.0001) %MON trcstat_ptracer15_max        =   2.5123188943481E+01
(PID.TID 0000.0001) %MON trcstat_ptracer15_min        =  -3.2384196160029E-08
(PID.TID 0000.0001) %MON trcstat_ptracer15_mean       =   1.4886393843748E-02
(PID.TID 0000.0001) %MON trcstat_ptracer15_sd         =   1.1611704710822E-01
(PID.TID 0000.0001) %MON trcstat_ptracer15_del2       =   1.0095997699260E-05
(PID.TID 0000.0001) %MON trcstat_ptracer16_max        =   1.2665316926933E-02
(PID.TID 0000.0001) %MON trcstat_ptracer16_min        =   6.6530214767324E-13
(PID.TID 0000.0001) %MON trcstat_ptracer16_mean       =   1.8101178411903E-06
(PID.TID 0000.0001) %MON trcstat_ptracer16_sd         =   2.4828725204616E-05
(PID.TID 0000.0001) %MON trcstat_ptracer16_del2       =   2.2498418550841E-08
(PID.TID 0000.0001) %MON trcstat_ptracer17_max        =   1.6448404614692E+01
(PID.TID 0000.0001) %MON trcstat_ptracer17_min        =  -1.2282850675296E-08
(PID.TID 0000.0001) %MON trcstat_ptracer17_mean       =   6.2377312438306E-03
(PID.TID 0000.0001) %MON trcstat_ptracer17_sd         =   5.6824652998441E-02
(PID.TID 0000.0001) %MON trcstat_ptracer17_del2       =   1.3393014939201E-05
(PID.TID 0000.0001) %MON trcstat_ptracer18_max        =   2.5684181846255E+03
(PID.TID 0000.0001) %MON trcstat_ptracer18_min        =   2.0143095460823E+03
(PID.TID 0000.0001) %MON trcstat_ptracer18_mean       =   2.3642447232752E+03
(PID.TID 0000.0001) %MON trcstat_ptracer18_sd         =   4.1988365629075E+01
(PID.TID 0000.0001) %MON trcstat_ptracer18_del2       =   4.8941367480601E-03
(PID.TID 0000.0001) %MON trcstat_ptracer19_max        =   4.0725369892138E+02
(PID.TID 0000.0001) %MON trcstat_ptracer19_min        =   2.5804338394687E-05
(PID.TID 0000.0001) %MON trcstat_ptracer19_mean       =   2.0188448732930E+01
(PID.TID 0000.0001) %MON trcstat_ptracer19_sd         =   5.4433874411596E+01
(PID.TID 0000.0001) %MON trcstat_ptracer19_del2       =   1.4042321270337E-02
(PID.TID 0000.0001) %MON trcstat_ptracer20_max        =   9.8870566711491E-02
(PID.TID 0000.0001) %MON trcstat_ptracer20_min        =  -1.3924927848097E-11
(PID.TID 0000.0001) %MON trcstat_ptracer20_mean       =   1.1314563036803E-04
(PID.TID 0000.0001) %MON trcstat_ptracer20_sd         =   3.9877968639365E-04
(PID.TID 0000.0001) %MON trcstat_ptracer20_del2       =   2.4522154470478E-07
(PID.TID 0000.0001) %MON trcstat_ptracer21_max        =   6.5476019391855E+01
(PID.TID 0000.0001) %MON trcstat_ptracer21_min        =  -6.6074123573677E-06
(PID.TID 0000.0001) %MON trcstat_ptracer21_mean       =   1.1265619626462E-01
(PID.TID 0000.0001) %MON trcstat_ptracer21_sd         =   1.0653292978903E+00
(PID.TID 0000.0001) %MON trcstat_ptracer21_del2       =   1.5529168238949E-03
(PID.TID 0000.0001) %MON trcstat_ptracer22_max        =   6.2021524431036E+01
(PID.TID 0000.0001) %MON trcstat_ptracer22_min        =  -3.1713760032846E-05
(PID.TID 0000.0001) %MON trcstat_ptracer22_mean       =   5.5831161882500E-02
(PID.TID 0000.0001) %MON trcstat_ptracer22_sd         =   5.3406184128950E-01
(PID.TID 0000.0001) %MON trcstat_ptracer22_del2       =   1.0198353244097E-03
(PID.TID 0000.0001) %MON trcstat_ptracer23_max        =   4.0243969228669E-11
(PID.TID 0000.0001) %MON trcstat_ptracer23_min        =  -9.7320340157086E-20
(PID.TID 0000.0001) %MON trcstat_ptracer23_mean       =   1.4724058243022E-13
(PID.TID 0000.0001) %MON trcstat_ptracer23_sd         =   5.4386903867001E-13
(PID.TID 0000.0001) %MON trcstat_ptracer23_del2       =   1.7966201046577E-16
(PID.TID 0000.0001) %MON trcstat_ptracer24_max        =   4.0243969228669E-11
(PID.TID 0000.0001) %MON trcstat_ptracer24_min        =  -9.7320340157086E-20
(PID.TID 0000.0001) %MON trcstat_ptracer24_mean       =   1.4724058243022E-13
(PID.TID 0000.0001) %MON trcstat_ptracer24_sd         =   5.4386903867001E-13
(PID.TID 0000.0001) %MON trcstat_ptracer24_del2       =   1.7966201046577E-16
(PID.TID 0000.0001) %MON trcstat_ptracer25_max        =   7.1088539699484E+00
(PID.TID 0000.0001) %MON trcstat_ptracer25_min        =  -1.4529835103376E-06
(PID.TID 0000.0001) %MON trcstat_ptracer25_mean       =   1.3141374913947E-02
(PID.TID 0000.0001) %MON trcstat_ptracer25_sd         =   1.1095908812087E-01
(PID.TID 0000.0001) %MON trcstat_ptracer25_del2       =   1.6291151450323E-04
(PID.TID 0000.0001) %MON trcstat_ptracer26_max        =   8.4228401230934E+00
(PID.TID 0000.0001) %MON trcstat_ptracer26_min        =  -8.9518481146622E-06
(PID.TID 0000.0001) %MON trcstat_ptracer26_mean       =   7.5687904868559E-03
(PID.TID 0000.0001) %MON trcstat_ptracer26_sd         =   7.0442535078070E-02
(PID.TID 0000.0001) %MON trcstat_ptracer26_del2       =   1.2302474692000E-04
(PID.TID 0000.0001) %MON trcstat_ptracer27_max        =   6.0745612586113E-12
(PID.TID 0000.0001) %MON trcstat_ptracer27_min        =  -1.4689862714887E-20
(PID.TID 0000.0001) %MON trcstat_ptracer27_mean       =   2.2224993574869E-14
(PID.TID 0000.0001) %MON trcstat_ptracer27_sd         =   8.2093439793833E-14
(PID.TID 0000.0001) %MON trcstat_ptracer27_del2       =   2.7118794031766E-17
(PID.TID 0000.0001) %MON trcstat_ptracer28_max        =   6.0745612586113E-12
(PID.TID 0000.0001) %MON trcstat_ptracer28_min        =  -1.4689862714887E-20
(PID.TID 0000.0001) %MON trcstat_ptracer28_mean       =   2.2224993574869E-14
(PID.TID 0000.0001) %MON trcstat_ptracer28_sd         =   8.2093439793833E-14
(PID.TID 0000.0001) %MON trcstat_ptracer28_del2       =   2.7118794031766E-17
(PID.TID 0000.0001) %MON trcstat_ptracer29_max        =   3.3147311042715E-01
(PID.TID 0000.0001) %MON trcstat_ptracer29_min        =  -3.4591148102804E-08
(PID.TID 0000.0001) %MON trcstat_ptracer29_mean       =   5.6393139185001E-04
(PID.TID 0000.0001) %MON trcstat_ptracer29_sd         =   5.3747882033031E-03
(PID.TID 0000.0001) %MON trcstat_ptracer29_del2       =   7.3003579659946E-06
(PID.TID 0000.0001) %MON trcstat_ptracer30_max        =   4.8235999741150E-01
(PID.TID 0000.0001) %MON trcstat_ptracer30_min        =  -6.1641601878496E-07
(PID.TID 0000.0001) %MON trcstat_ptracer30_mean       =   8.1003332246966E-04
(PID.TID 0000.0001) %MON trcstat_ptracer30_sd         =   7.4230155558433E-03
(PID.TID 0000.0001) %MON trcstat_ptracer30_del2       =   1.1072205851666E-05
(PID.TID 0000.0001) %MON trcstat_ptracer31_max        =   2.3728754916450E-14
(PID.TID 0000.0001) %MON trcstat_ptracer31_min        =  -5.7382276230027E-23
(PID.TID 0000.0001) %MON trcstat_ptracer31_mean       =   8.6816381151830E-17
(PID.TID 0000.0001) %MON trcstat_ptracer31_sd         =   3.2067749919466E-16
(PID.TID 0000.0001) %MON trcstat_ptracer31_del2       =   1.0593278918659E-19
(PID.TID 0000.0001) %MON trcstat_ptracer32_max        =   2.3728754916450E-14
(PID.TID 0000.0001) %MON trcstat_ptracer32_min        =  -5.7382276230027E-23
(PID.TID 0000.0001) %MON trcstat_ptracer32_mean       =   8.6816381151830E-17
(PID.TID 0000.0001) %MON trcstat_ptracer32_sd         =   3.2067749919466E-16
(PID.TID 0000.0001) %MON trcstat_ptracer32_del2       =   1.0593278918659E-19
(PID.TID 0000.0001) %MON trcstat_ptracer33_max        =   6.9327991867362E-03
(PID.TID 0000.0001) %MON trcstat_ptracer33_min        =  -1.7294034296874E-09
(PID.TID 0000.0001) %MON trcstat_ptracer33_mean       =   8.1922392588379E-06
(PID.TID 0000.0001) %MON trcstat_ptracer33_sd         =   6.5390237620096E-05
(PID.TID 0000.0001) %MON trcstat_ptracer33_del2       =   7.4130117225517E-08
(PID.TID 0000.0001) %MON trcstat_ptracer34_max        =   3.3168627646226E-03
(PID.TID 0000.0001) %MON trcstat_ptracer34_min        =  -1.0510124229848E-08
(PID.TID 0000.0001) %MON trcstat_ptracer34_mean       =   3.4579446453410E-06
(PID.TID 0000.0001) %MON trcstat_ptracer34_sd         =   2.5231569682506E-05
(PID.TID 0000.0001) %MON trcstat_ptracer34_del2       =   4.1247124988856E-08
(PID.TID 0000.0001) %MON trcstat_ptracer35_max        =   4.0243969813913E-14
(PID.TID 0000.0001) %MON trcstat_ptracer35_min        =  -9.7320340250832E-23
(PID.TID 0000.0001) %MON trcstat_ptracer35_mean       =   1.4724058242738E-16
(PID.TID 0000.0001) %MON trcstat_ptracer35_sd         =   5.4386903863837E-16
(PID.TID 0000.0001) %MON trcstat_ptracer35_del2       =   1.7966201041875E-19
(PID.TID 0000.0001) %MON trcstat_ptracer36_max        =   4.0243969813913E-14
(PID.TID 0000.0001) %MON trcstat_ptracer36_min        =  -9.7320340250832E-23
(PID.TID 0000.0001) %MON trcstat_ptracer36_mean       =   1.4724058242738E-16
(PID.TID 0000.0001) %MON trcstat_ptracer36_sd         =   5.4386903863837E-16
(PID.TID 0000.0001) %MON trcstat_ptracer36_del2       =   1.7966201041875E-19
(PID.TID 0000.0001) // =======================================================
(PID.TID 0000.0001) // End MONITOR ptracer field statistics
(PID.TID 0000.0001) // =======================================================
 Computing Diagnostic #    183  TRAC01       Counter:       1   Parms: SMR     MR      
 Computing Diagnostic #    198  TRAC02       Counter:       1   Parms: SMR     MR      
 Computing Diagnostic #    213  TRAC03       Counter:       1   Parms: SMR     MR      
 Computing Diagnostic #    228  TRAC04       Counter:       1   Parms: SMR     MR      
 Computing Diagnostic #    243  TRAC05       Counter:       1   Parms: SMR     MR      
 Computing Diagnostic #    258  TRAC06       Counter:       1   Parms: SMR     MR      
 Computing Diagnostic #    273  TRAC07       Counter:       1   Parms: SMR     MR      
 Computing Diagnostic #    288  TRAC08       Counter:       1   Parms: SMR     MR      
 Computing Diagnostic #    303  TRAC09       Counter:       1   Parms: SMR     MR      
 Computing Diagnostic #    318  TRAC10       Counter:       1   Parms: SMR     MR      
 Computing Diagnostic #    333  TRAC11       Counter:       1   Parms: SMR     MR      
 Computing Diagnostic #    348  TRAC12       Counter:       1   Parms: SMR     MR      
 Computing Diagnostic #    363  TRAC13       Counter:       1   Parms: SMR     MR      
 Computing Diagnostic #    378  TRAC14       Counter:       1   Parms: SMR     MR      
 Computing Diagnostic #    393  TRAC15       Counter:       1   Parms: SMR     MR      
 Computing Diagnostic #    408  TRAC16       Counter:       1   Parms: SMR     MR      
 Computing Diagnostic #    423  TRAC17       Counter:       1   Parms: SMR     MR      
 Computing Diagnostic #    438  TRAC18       Counter:       1   Parms: SMR     MR      
 Computing Diagnostic #    453  TRAC19       Counter:       1   Parms: SMR     MR      
 Computing Diagnostic #    468  TRAC20       Counter:       1   Parms: SMR     MR      
 Computing Diagnostic #    483  TRAC21       Counter:       1   Parms: SMR     MR      
 Computing Diagnostic #    498  TRAC22       Counter:       1   Parms: SMR     MR      
 Computing Diagnostic #    513  TRAC23       Counter:       1   Parms: SMR     MR      
 Computing Diagnostic #    528  TRAC24       Counter:       1   Parms: SMR     MR      
 Computing Diagnostic #    543  TRAC25       Counter:       1   Parms: SMR     MR      
 Computing Diagnostic #    558  TRAC26       Counter:       1   Parms: SMR     MR      
 Computing Diagnostic #    573  TRAC27       Counter:       1   Parms: SMR     MR      
 Computing Diagnostic #    588  TRAC28       Counter:       1   Parms: SMR     MR      
 Computing Diagnostic #    603  TRAC29       Counter:       1   Parms: SMR     MR      
 Computing Diagnostic #    618  TRAC30       Counter:       1   Parms: SMR     MR      
 Computing Diagnostic #    633  TRAC31       Counter:       1   Parms: SMR     MR      
 Computing Diagnostic #    648  TRAC32       Counter:       1   Parms: SMR     MR      
 Computing Diagnostic #    663  TRAC33       Counter:       1   Parms: SMR     MR      
 Computing Diagnostic #    678  TRAC34       Counter:       1   Parms: SMR     MR      
 Computing Diagnostic #    693  TRAC35       Counter:       1   Parms: SMR     MR      
 Computing Diagnostic #    708  TRAC36       Counter:       1   Parms: SMR     MR      
 Computing Diagnostic #    990  PAR          Counter:       1   Parms: SM P    MR      
 Computing Diagnostic #    724  PP           Counter:       1   Parms: SM P    MR      
 Computing Diagnostic #    725  Nfix         Counter:       1   Parms: SM P    MR      
 Computing Diagnostic #    726  Denit        Counter:       1   Parms: SM P    MR      
 Computing Diagnostic #   1035  pH           Counter:       1   Parms: SM      MR      
 Computing Diagnostic #   1036  pCO2         Counter:       1   Parms: SM P    MR      
 Computing Diagnostic #    728  PC0001       Counter:       1   Parms: SM P    MR      
 Computing Diagnostic #    727  PChl0001     Counter:       1   Parms: SM P    MR      
 Computing Diagnostic #    729  VN0001       Counter:       1   Parms: SM P    MR      
 Computing Diagnostic #    730  MODE0001     Counter:       1   Parms: SM P    MR      
 Computing Diagnostic #    731  Fe_C0001     Counter:       1   Parms: SM P    MR      
 Computing Diagnostic #    732  exQc0001     Counter:       1   Parms: SM P    MR      
 Computing Diagnostic #    733  PCg0001      Counter:       1   Parms: SM P    MR      
 Computing Diagnostic #    734  CChl0001     Counter:       1   Parms: SM P    MR      
 Computing Diagnostic #    735  NChl0001     Counter:       1   Parms: SM P    MR      
 Computing Diagnostic #    736  NPho0001     Counter:       1   Parms: SM P    MR      
 Computing Diagnostic #    737  NSyn0001     Counter:       1   Parms: SM P    MR      
 Computing Diagnostic #    738  NPrn0001     Counter:       1   Parms: SM P    MR      
 Computing Diagnostic #    739  NRNA0001     Counter:       1   Parms: SM P    MR      
 Computing Diagnostic #    740  NDNA0001     Counter:       1   Parms: SM P    MR      
 Computing Diagnostic #    741  NSTO0001     Counter:       1   Parms: SM P    MR      
 Computing Diagnostic #    742  NEXC0001     Counter:       1   Parms: SM P    MR      
 Computing Diagnostic #    743  PRNA0001     Counter:       1   Parms: SM P    MR      
 Computing Diagnostic #    744  PDNA0001     Counter:       1   Parms: SM P    MR      
 Computing Diagnostic #    745  PTHY0001     Counter:       1   Parms: SM P    MR      
 Computing Diagnostic #    746  PCON0001     Counter:       1   Parms: SM P    MR      
 Computing Diagnostic #    747  PSTO0001     Counter:       1   Parms: SM P    MR      
 Computing Diagnostic #    748  PEXC0001     Counter:       1   Parms: SM P    MR      
 Computing Diagnostic #    749  FPHO0001     Counter:       1   Parms: SM P    MR      
 Computing Diagnostic #    750  FSTO0001     Counter:       1   Parms: SM P    MR      
 Computing Diagnostic #    751  FEXC0001     Counter:       1   Parms: SM P    MR      
 Computing Diagnostic #    759  CChl0002     Counter:       1   Parms: SM P    MR      
 Computing Diagnostic #    760  NChl0002     Counter:       1   Parms: SM P    MR      
 Computing Diagnostic #    761  NPho0002     Counter:       1   Parms: SM P    MR      
 Computing Diagnostic #    762  NSyn0002     Counter:       1   Parms: SM P    MR      
 Computing Diagnostic #    763  NPrn0002     Counter:       1   Parms: SM P    MR      
 Computing Diagnostic #    764  NRNA0002     Counter:       1   Parms: SM P    MR      
 Computing Diagnostic #    765  NDNA0002     Counter:       1   Parms: SM P    MR      
 Computing Diagnostic #    766  NSTO0002     Counter:       1   Parms: SM P    MR      
 Computing Diagnostic #    767  NEXC0002     Counter:       1   Parms: SM P    MR      
 Computing Diagnostic #    768  PRNA0002     Counter:       1   Parms: SM P    MR      
 Computing Diagnostic #    769  PDNA0002     Counter:       1   Parms: SM P    MR      
 Computing Diagnostic #    770  PTHY0002     Counter:       1   Parms: SM P    MR      
 Computing Diagnostic #    771  PCON0002     Counter:       1   Parms: SM P    MR      
 Computing Diagnostic #    772  PSTO0002     Counter:       1   Parms: SM P    MR      
 Computing Diagnostic #    773  PEXC0002     Counter:       1   Parms: SM P    MR      
 Computing Diagnostic #    774  FPHO0002     Counter:       1   Parms: SM P    MR      
 Computing Diagnostic #    775  FSTO0002     Counter:       1   Parms: SM P    MR      
 Computing Diagnostic #    776  FEXC0002     Counter:       1   Parms: SM P    MR      
 Computing Diagnostic #    753  PC0002       Counter:       1   Parms: SM P    MR      
 Computing Diagnostic #    752  PChl0002     Counter:       1   Parms: SM P    MR      
 Computing Diagnostic #    754  VN0002       Counter:       1   Parms: SM P    MR      
 Computing Diagnostic #    755  MODE0002     Counter:       1   Parms: SM P    MR      
 Computing Diagnostic #    756  Fe_C0002     Counter:       1   Parms: SM P    MR      
 Computing Diagnostic #    757  exQc0002     Counter:       1   Parms: SM P    MR      
 Computing Diagnostic #    758  PCg0002      Counter:       1   Parms: SM P    MR      
 Compute Stats, Diag. #    724  PP        vol(   0 ): 3.978E+18  Parms: SM P    MR      
 Compute Stats, Diag. #    725  Nfix      vol(   0 ): 3.978E+18  Parms: SM P    MR      
 Compute Stats, Diag. #    726  Denit     vol(   0 ): 3.978E+18  Parms: SM P    MR      
(PID.TID 0000.0001) // =======================================================
(PID.TID 0000.0001) // Begin MONITOR EXF statistics
(PID.TID 0000.0001) // =======================================================
(PID.TID 0000.0001) %MON exf_tsnumber                 =                     3
(PID.TID 0000.0001) %MON exf_time_sec                 =   1.0800000000000E+04
(PID.TID 0000.0001) %MON exf_ustress_max              =   0.0000000000000E+00
(PID.TID 0000.0001) %MON exf_ustress_min              =   0.0000000000000E+00
(PID.TID 0000.0001) %MON exf_ustress_mean             =   0.0000000000000E+00
(PID.TID 0000.0001) %MON exf_ustress_sd               =   0.0000000000000E+00
(PID.TID 0000.0001) %MON exf_ustress_del2             =   0.0000000000000E+00
(PID.TID 0000.0001) %MON exf_vstress_max              =   0.0000000000000E+00
(PID.TID 0000.0001) %MON exf_vstress_min              =   0.0000000000000E+00
(PID.TID 0000.0001) %MON exf_vstress_mean             =   0.0000000000000E+00
(PID.TID 0000.0001) %MON exf_vstress_sd               =   0.0000000000000E+00
(PID.TID 0000.0001) %MON exf_vstress_del2             =   0.0000000000000E+00
(PID.TID 0000.0001) %MON exf_hflux_max                =   0.0000000000000E+00
(PID.TID 0000.0001) %MON exf_hflux_min                =   0.0000000000000E+00
(PID.TID 0000.0001) %MON exf_hflux_mean               =   0.0000000000000E+00
(PID.TID 0000.0001) %MON exf_hflux_sd                 =   0.0000000000000E+00
(PID.TID 0000.0001) %MON exf_hflux_del2               =   0.0000000000000E+00
(PID.TID 0000.0001) %MON exf_sflux_max                =   0.0000000000000E+00
(PID.TID 0000.0001) %MON exf_sflux_min                =   0.0000000000000E+00
(PID.TID 0000.0001) %MON exf_sflux_mean               =   0.0000000000000E+00
(PID.TID 0000.0001) %MON exf_sflux_sd                 =   0.0000000000000E+00
(PID.TID 0000.0001) %MON exf_sflux_del2               =   0.0000000000000E+00
(PID.TID 0000.0001) %MON exf_uwind_max                =   0.0000000000000E+00
(PID.TID 0000.0001) %MON exf_uwind_min                =   0.0000000000000E+00
(PID.TID 0000.0001) %MON exf_uwind_mean               =   0.0000000000000E+00
(PID.TID 0000.0001) %MON exf_uwind_sd                 =   0.0000000000000E+00
(PID.TID 0000.0001) %MON exf_uwind_del2               =   0.0000000000000E+00
(PID.TID 0000.0001) %MON exf_vwind_max                =   0.0000000000000E+00
(PID.TID 0000.0001) %MON exf_vwind_min                =   0.0000000000000E+00
(PID.TID 0000.0001) %MON exf_vwind_mean               =   0.0000000000000E+00
(PID.TID 0000.0001) %MON exf_vwind_sd                 =   0.0000000000000E+00
(PID.TID 0000.0001) %MON exf_vwind_del2               =   0.0000000000000E+00
(PID.TID 0000.0001) %MON exf_wspeed_max               =   0.0000000000000E+00
(PID.TID 0000.0001) %MON exf_wspeed_min               =   0.0000000000000E+00
(PID.TID 0000.0001) %MON exf_wspeed_mean              =   0.0000000000000E+00
(PID.TID 0000.0001) %MON exf_wspeed_sd                =   0.0000000000000E+00
(PID.TID 0000.0001) %MON exf_wspeed_del2              =   0.0000000000000E+00
(PID.TID 0000.0001) %MON exf_evap_max                 =   0.0000000000000E+00
(PID.TID 0000.0001) %MON exf_evap_min                 =   0.0000000000000E+00
(PID.TID 0000.0001) %MON exf_evap_mean                =   0.0000000000000E+00
(PID.TID 0000.0001) %MON exf_evap_sd                  =   0.0000000000000E+00
(PID.TID 0000.0001) %MON exf_evap_del2                =   0.0000000000000E+00
(PID.TID 0000.0001) // =======================================================
(PID.TID 0000.0001) // End MONITOR EXF statistics
(PID.TID 0000.0001) // =======================================================
(PID.TID 0000.0001) // =======================================================
(PID.TID 0000.0001) // Begin MONITOR GUD statistics
(PID.TID 0000.0001) // =======================================================
(PID.TID 0000.0001) %MON gud_tsnumber                 =                     3
(PID.TID 0000.0001) %MON gud_time_sec                 =   1.0800000000000E+04
(PID.TID 0000.0001) %MON gud_OASIMEd01_max            =   2.7632812480132E+00
(PID.TID 0000.0001) %MON gud_OASIMEd01_min            =   2.5805192106148E-37
(PID.TID 0000.0001) %MON gud_OASIMEd01_mean           =   9.5100830804588E-01
(PID.TID 0000.0001) %MON gud_OASIMEd01_sd             =   6.8310005235928E-01
(PID.TID 0000.0001) %MON gud_OASIMEd01_del2           =   2.4634221779316E-03
(PID.TID 0000.0001) %MON gud_OASIMEd02_max            =   7.1649040063222E+00
(PID.TID 0000.0001) %MON gud_OASIMEd02_min            =   5.1610384212295E-37
(PID.TID 0000.0001) %MON gud_OASIMEd02_mean           =   2.4690986402391E+00
(PID.TID 0000.0001) %MON gud_OASIMEd02_sd             =   1.7474742055218E+00
(PID.TID 0000.0001) %MON gud_OASIMEd02_del2           =   6.3564978149797E-03
(PID.TID 0000.0001) %MON gud_OASIMEd03_max            =   8.7406473239263E+00
(PID.TID 0000.0001) %MON gud_OASIMEd03_min            =   5.1610384212295E-37
(PID.TID 0000.0001) %MON gud_OASIMEd03_mean           =   2.9981955732321E+00
(PID.TID 0000.0001) %MON gud_OASIMEd03_sd             =   2.1079519793741E+00
(PID.TID 0000.0001) %MON gud_OASIMEd03_del2           =   7.6908729599294E-03
(PID.TID 0000.0001) %MON gud_OASIMEd04_max            =   9.2532021403313E+00
(PID.TID 0000.0001) %MON gud_OASIMEd04_min            =   5.1610384212295E-37
(PID.TID 0000.0001) %MON gud_OASIMEd04_mean           =   3.1843624049948E+00
(PID.TID 0000.0001) %MON gud_OASIMEd04_sd             =   2.2166129859570E+00
(PID.TID 0000.0001) %MON gud_OASIMEd04_del2           =   8.1357426990906E-03
(PID.TID 0000.0001) %MON gud_OASIMEd05_max            =   9.3276818315188E+00
(PID.TID 0000.0001) %MON gud_OASIMEd05_min            =   5.1610390882476E-37
(PID.TID 0000.0001) %MON gud_OASIMEd05_mean           =   3.2178513642440E+00
(PID.TID 0000.0001) %MON gud_OASIMEd05_sd             =   2.2198140191812E+00
(PID.TID 0000.0001) %MON gud_OASIMEd05_del2           =   8.1920489370198E-03
(PID.TID 0000.0001) %MON gud_OASIMEd06_max            =   9.1590950210889E+00
(PID.TID 0000.0001) %MON gud_OASIMEd06_min            =   5.1610393105870E-37
(PID.TID 0000.0001) %MON gud_OASIMEd06_mean           =   3.1761122629553E+00
(PID.TID 0000.0001) %MON gud_OASIMEd06_sd             =   2.1773454842320E+00
(PID.TID 0000.0001) %MON gud_OASIMEd06_del2           =   8.0653640594901E-03
(PID.TID 0000.0001) %MON gud_OASIMEd07_max            =   9.2882659276327E+00
(PID.TID 0000.0001) %MON gud_OASIMEd07_min            =   5.1610395329263E-37
(PID.TID 0000.0001) %MON gud_OASIMEd07_mean           =   3.2280743170803E+00
(PID.TID 0000.0001) %MON gud_OASIMEd07_sd             =   2.2034818820917E+00
(PID.TID 0000.0001) %MON gud_OASIMEd07_del2           =   8.1817593741071E-03
(PID.TID 0000.0001) %MON gud_OASIMEd08_max            =   9.1941847960154E+00
(PID.TID 0000.0001) %MON gud_OASIMEd08_min            =   5.1610404222837E-37
(PID.TID 0000.0001) %MON gud_OASIMEd08_mean           =   3.1816007250118E+00
(PID.TID 0000.0001) %MON gud_OASIMEd08_sd             =   2.1657422597731E+00
(PID.TID 0000.0001) %MON gud_OASIMEd08_del2           =   8.0527271206358E-03
(PID.TID 0000.0001) %MON gud_OASIMEd09_max            =   8.7368162711461E+00
(PID.TID 0000.0001) %MON gud_OASIMEd09_min            =   5.1610450914102E-37
(PID.TID 0000.0001) %MON gud_OASIMEd09_mean           =   3.0235196550838E+00
(PID.TID 0000.0001) %MON gud_OASIMEd09_sd             =   2.0486524952763E+00
(PID.TID 0000.0001) %MON gud_OASIMEd09_del2           =   7.6407376944482E-03
(PID.TID 0000.0001) %MON gud_OASIMEd10_max            =   8.6697052598000E+00
(PID.TID 0000.0001) %MON gud_OASIMEd10_min            =   5.1610488711793E-37
(PID.TID 0000.0001) %MON gud_OASIMEd10_mean           =   3.0172122460394E+00
(PID.TID 0000.0001) %MON gud_OASIMEd10_sd             =   2.0394480232463E+00
(PID.TID 0000.0001) %MON gud_OASIMEd10_del2           =   7.6149393161898E-03
(PID.TID 0000.0001) %MON gud_OASIMEd11_max            =   8.2007292648156E+00
(PID.TID 0000.0001) %MON gud_OASIMEd11_min            =   5.1610524286090E-37
(PID.TID 0000.0001) %MON gud_OASIMEd11_mean           =   2.8460230048013E+00
(PID.TID 0000.0001) %MON gud_OASIMEd11_sd             =   1.9154454239217E+00
(PID.TID 0000.0001) %MON gud_OASIMEd11_del2           =   7.1719338914652E-03
(PID.TID 0000.0001) %MON gud_OASIMEd12_max            =   7.4815078655879E+00
(PID.TID 0000.0001) %MON gud_OASIMEd12_min            =   5.1610546520025E-37
(PID.TID 0000.0001) %MON gud_OASIMEd12_mean           =   2.5981408779391E+00
(PID.TID 0000.0001) %MON gud_OASIMEd12_sd             =   1.7524072666589E+00
(PID.TID 0000.0001) %MON gud_OASIMEd12_del2           =   6.5479646592450E-03
(PID.TID 0000.0001) %MON gud_OASIMEd13_max            =   3.6964058190584E+00
(PID.TID 0000.0001) %MON gud_OASIMEd13_min            =   5.1610617668620E-37
(PID.TID 0000.0001) %MON gud_OASIMEd13_mean           =   1.2782350832914E+00
(PID.TID 0000.0001) %MON gud_OASIMEd13_sd             =   8.5802507784813E-01
(PID.TID 0000.0001) %MON gud_OASIMEd13_del2           =   3.2168971155784E-03
(PID.TID 0000.0001) %MON gud_OASIMEs01_max            =   2.9257254660130E+00
(PID.TID 0000.0001) %MON gud_OASIMEs01_min            =   4.6921565580790E-37
(PID.TID 0000.0001) %MON gud_OASIMEs01_mean           =   1.9221707892450E+00
(PID.TID 0000.0001) %MON gud_OASIMEs01_sd             =   7.2406224732179E-01
(PID.TID 0000.0001) %MON gud_OASIMEs01_del2           =   4.6542446365533E-03
(PID.TID 0000.0001) %MON gud_OASIMEs02_max            =   6.9801600873470E+00
(PID.TID 0000.0001) %MON gud_OASIMEs02_min            =   9.3843131161579E-37
(PID.TID 0000.0001) %MON gud_OASIMEs02_mean           =   4.5356823617744E+00
(PID.TID 0000.0001) %MON gud_OASIMEs02_sd             =   1.7197127432564E+00
(PID.TID 0000.0001) %MON gud_OASIMEs02_del2           =   1.1007270217742E-02
(PID.TID 0000.0001) %MON gud_OASIMEs03_max            =   8.0266555090745E+00
(PID.TID 0000.0001) %MON gud_OASIMEs03_min            =   9.3843131161579E-37
(PID.TID 0000.0001) %MON gud_OASIMEs03_mean           =   5.1679680484005E+00
(PID.TID 0000.0001) %MON gud_OASIMEs03_sd             =   1.9757093496040E+00
(PID.TID 0000.0001) %MON gud_OASIMEs03_del2           =   1.2528906267100E-02
(PID.TID 0000.0001) %MON gud_OASIMEs04_max            =   8.0642440398534E+00
(PID.TID 0000.0001) %MON gud_OASIMEs04_min            =   9.3843135608366E-37
(PID.TID 0000.0001) %MON gud_OASIMEs04_mean           =   5.1505588882734E+00
(PID.TID 0000.0001) %MON gud_OASIMEs04_sd             =   1.9822359699810E+00
(PID.TID 0000.0001) %MON gud_OASIMEs04_del2           =   1.2509222576965E-02
(PID.TID 0000.0001) %MON gud_OASIMEs05_max            =   7.7760907491048E+00
(PID.TID 0000.0001) %MON gud_OASIMEs05_min            =   9.3843140055153E-37
(PID.TID 0000.0001) %MON gud_OASIMEs05_mean           =   4.9329593902373E+00
(PID.TID 0000.0001) %MON gud_OASIMEs05_sd             =   1.9116237746829E+00
(PID.TID 0000.0001) %MON gud_OASIMEs05_del2           =   1.2010415229621E-02
(PID.TID 0000.0001) %MON gud_OASIMEs06_max            =   7.3728981475035E+00
(PID.TID 0000.0001) %MON gud_OASIMEs06_min            =   9.3843153395515E-37
(PID.TID 0000.0001) %MON gud_OASIMEs06_mean           =   4.6470875359123E+00
(PID.TID 0000.0001) %MON gud_OASIMEs06_sd             =   1.8162250292622E+00
(PID.TID 0000.0001) %MON gud_OASIMEs06_del2           =   1.1333133915285E-02
(PID.TID 0000.0001) %MON gud_OASIMEs07_max            =   7.2588667531808E+00
(PID.TID 0000.0001) %MON gud_OASIMEs07_min            =   9.3843162289089E-37
(PID.TID 0000.0001) %MON gud_OASIMEs07_mean           =   4.5511313900374E+00
(PID.TID 0000.0001) %MON gud_OASIMEs07_sd             =   1.7936197723686E+00
(PID.TID 0000.0001) %MON gud_OASIMEs07_del2           =   1.1114425946783E-02
(PID.TID 0000.0001) %MON gud_OASIMEs08_max            =   7.0179101785024E+00
(PID.TID 0000.0001) %MON gud_OASIMEs08_min            =   9.3843180076238E-37
(PID.TID 0000.0001) %MON gud_OASIMEs08_mean           =   4.3710227667379E+00
(PID.TID 0000.0001) %MON gud_OASIMEs08_sd             =   1.7375236492645E+00
(PID.TID 0000.0001) %MON gud_OASIMEs08_del2           =   1.0693322088209E-02
(PID.TID 0000.0001) %MON gud_OASIMEs09_max            =   6.5688103556633E+00
(PID.TID 0000.0001) %MON gud_OASIMEs09_min            =   9.3843255671619E-37
(PID.TID 0000.0001) %MON gud_OASIMEs09_mean           =   4.0587017598145E+00
(PID.TID 0000.0001) %MON gud_OASIMEs09_sd             =   1.6229183582003E+00
(PID.TID 0000.0001) %MON gud_OASIMEs09_del2           =   9.9553383482306E-03
(PID.TID 0000.0001) %MON gud_OASIMEs10_max            =   6.4139706770579E+00
(PID.TID 0000.0001) %MON gud_OASIMEs10_min            =   9.3843309033064E-37
(PID.TID 0000.0001) %MON gud_OASIMEs10_mean           =   3.9763208232368E+00
(PID.TID 0000.0001) %MON gud_OASIMEs10_sd             =   1.5878643307508E+00
(PID.TID 0000.0001) %MON gud_OASIMEs10_del2           =   9.7389676399986E-03
(PID.TID 0000.0001) %MON gud_OASIMEs11_max            =   6.0373993734519E+00
(PID.TID 0000.0001) %MON gud_OASIMEs11_min            =   9.3843349054148E-37
(PID.TID 0000.0001) %MON gud_OASIMEs11_mean           =   3.7217893060932E+00
(PID.TID 0000.0001) %MON gud_OASIMEs11_sd             =   1.4841506676103E+00
(PID.TID 0000.0001) %MON gud_OASIMEs11_del2           =   9.1184789429332E-03
(PID.TID 0000.0001) %MON gud_OASIMEs12_max            =   5.4181390066942E+00
(PID.TID 0000.0001) %MON gud_OASIMEs12_min            =   9.3843406862381E-37
(PID.TID 0000.0001) %MON gud_OASIMEs12_mean           =   3.3338882080704E+00
(PID.TID 0000.0001) %MON gud_OASIMEs12_sd             =   1.3447373338498E+00
(PID.TID 0000.0001) %MON gud_OASIMEs12_del2           =   8.1719372795384E-03
(PID.TID 0000.0001) %MON gud_OASIMEs13_max            =   2.6720956792434E+00
(PID.TID 0000.0001) %MON gud_OASIMEs13_min            =   9.3843500244911E-37
(PID.TID 0000.0001) %MON gud_OASIMEs13_mean           =   1.6316541067078E+00
(PID.TID 0000.0001) %MON gud_OASIMEs13_sd             =   6.5784232447269E-01
(PID.TID 0000.0001) %MON gud_OASIMEs13_del2           =   4.0067951554088E-03
(PID.TID 0000.0001) %MON gud_surfPAR_max              =   0.0000000000000E+00
(PID.TID 0000.0001) %MON gud_surfPAR_min              =   0.0000000000000E+00
(PID.TID 0000.0001) %MON gud_surfPAR_mean             =   0.0000000000000E+00
(PID.TID 0000.0001) %MON gud_surfPAR_sd               =   0.0000000000000E+00
(PID.TID 0000.0001) %MON gud_surfPAR_del2             =   0.0000000000000E+00
(PID.TID 0000.0001) %MON gud_inputFe_max              =   4.8091420114856E-09
(PID.TID 0000.0001) %MON gud_inputFe_min              =   7.4781132517145E-12
(PID.TID 0000.0001) %MON gud_inputFe_mean             =   4.3474959920318E-10
(PID.TID 0000.0001) %MON gud_inputFe_sd               =   5.1801081120976E-10
(PID.TID 0000.0001) %MON gud_inputFe_del2             =   1.4004921779650E-12
(PID.TID 0000.0001) %MON gud_iceFrac_max              =   1.0000000000000E+00
(PID.TID 0000.0001) %MON gud_iceFrac_min              =   0.0000000000000E+00
(PID.TID 0000.0001) %MON gud_iceFrac_mean             =   6.1021864461893E-03
(PID.TID 0000.0001) %MON gud_iceFrac_sd               =   6.6379819626694E-02
(PID.TID 0000.0001) %MON gud_iceFrac_del2             =   3.5442418121248E-04
(PID.TID 0000.0001) %MON gud_windSpeed_max            =   1.4272332549095E+01
(PID.TID 0000.0001) %MON gud_windSpeed_min            =   2.1544499248266E+00
(PID.TID 0000.0001) %MON gud_windSpeed_mean           =   7.6790234473148E+00
(PID.TID 0000.0001) %MON gud_windSpeed_sd             =   2.3580283105830E+00
(PID.TID 0000.0001) %MON gud_windSpeed_del2           =   1.8891469529761E-02
(PID.TID 0000.0001) %MON gud_atmospCO2_max            =   2.7800000000000E-04
(PID.TID 0000.0001) %MON gud_atmospCO2_min            =   2.7800000000000E-04
(PID.TID 0000.0001) %MON gud_atmospCO2_mean           =   2.7800000000000E-04
(PID.TID 0000.0001) %MON gud_atmospCO2_sd             =   5.4210108624275E-19
(PID.TID 0000.0001) %MON gud_atmospCO2_del2           =   0.0000000000000E+00
(PID.TID 0000.0001) // =======================================================
(PID.TID 0000.0001) // End MONITOR GUD statistics
(PID.TID 0000.0001) // =======================================================
(PID.TID 0000.0001) // =======================================================
(PID.TID 0000.0001) // Begin MONITOR dynamic field statistics
(PID.TID 0000.0001) // =======================================================
(PID.TID 0000.0001) %MON time_tsnumber                =                     4
(PID.TID 0000.0001) %MON time_secondsf                =   1.4400000000000E+04
(PID.TID 0000.0001) %MON dynstat_eta_max              =   0.0000000000000E+00
(PID.TID 0000.0001) %MON dynstat_eta_min              =   0.0000000000000E+00
(PID.TID 0000.0001) %MON dynstat_eta_mean             =   0.0000000000000E+00
(PID.TID 0000.0001) %MON dynstat_eta_sd               =   0.0000000000000E+00
(PID.TID 0000.0001) %MON dynstat_eta_del2             =   0.0000000000000E+00
(PID.TID 0000.0001) %MON dynstat_uvel_max             =   7.9929898182551E-01
(PID.TID 0000.0001) %MON dynstat_uvel_min             =  -8.0240646998088E-01
(PID.TID 0000.0001) %MON dynstat_uvel_mean            =   2.3235593902553E-03
(PID.TID 0000.0001) %MON dynstat_uvel_sd              =   2.2872628115977E-02
(PID.TID 0000.0001) %MON dynstat_uvel_del2            =   2.5666692908702E-05
(PID.TID 0000.0001) %MON dynstat_vvel_max             =   1.2489283879598E+00
(PID.TID 0000.0001) %MON dynstat_vvel_min             =  -9.2241825411717E-01
(PID.TID 0000.0001) %MON dynstat_vvel_mean            =  -1.6422290449826E-05
(PID.TID 0000.0001) %MON dynstat_vvel_sd              =   1.1724227000820E-02
(PID.TID 0000.0001) %MON dynstat_vvel_del2            =   2.3767458172051E-05
(PID.TID 0000.0001) %MON dynstat_wvel_max             =   5.6044008912674E-04
(PID.TID 0000.0001) %MON dynstat_wvel_min             =  -6.3009187579155E-04
(PID.TID 0000.0001) %MON dynstat_wvel_mean            =   2.2214341155672E-14
(PID.TID 0000.0001) %MON dynstat_wvel_sd              =   1.0435709730302E-05
(PID.TID 0000.0001) %MON dynstat_wvel_del2            =   1.9189990871108E-08
(PID.TID 0000.0001) %MON dynstat_theta_max            =   3.1829095840454E+01
(PID.TID 0000.0001) %MON dynstat_theta_min            =  -2.6680278778076E+00
(PID.TID 0000.0001) %MON dynstat_theta_mean           =   3.6067305518423E+00
(PID.TID 0000.0001) %MON dynstat_theta_sd             =   4.4524799480359E+00
(PID.TID 0000.0001) %MON dynstat_theta_del2           =   3.6664659173690E-04
(PID.TID 0000.0001) %MON dynstat_salt_max             =   3.9532699584961E+01
(PID.TID 0000.0001) %MON dynstat_salt_min             =   2.6542177836100E+01
(PID.TID 0000.0001) %MON dynstat_salt_mean            =   3.4722133657119E+01
(PID.TID 0000.0001) %MON dynstat_salt_sd              =   3.6496331761213E-01
(PID.TID 0000.0001) %MON dynstat_salt_del2            =   6.9915617628963E-05
(PID.TID 0000.0001) %MON dynstat_sst_max              =   3.1829095840454E+01
(PID.TID 0000.0001) %MON dynstat_sst_min              =  -1.9897443453471E+00
(PID.TID 0000.0001) %MON dynstat_sst_mean             =   1.9165055021311E+01
(PID.TID 0000.0001) %MON dynstat_sst_sd               =   9.5430561709696E+00
(PID.TID 0000.0001) %MON dynstat_sst_del2             =   2.1992727600189E-03
(PID.TID 0000.0001) %MON dynstat_sss_max              =   3.9532699584961E+01
(PID.TID 0000.0001) %MON dynstat_sss_min              =   2.6542177836100E+01
(PID.TID 0000.0001) %MON dynstat_sss_mean             =   3.4860954182091E+01
(PID.TID 0000.0001) %MON dynstat_sss_sd               =   1.0794579334980E+00
(PID.TID 0000.0001) %MON dynstat_sss_del2             =   6.0022475453677E-04
(PID.TID 0000.0001) %MON forcing_qnet_max             =   0.0000000000000E+00
(PID.TID 0000.0001) %MON forcing_qnet_min             =   0.0000000000000E+00
(PID.TID 0000.0001) %MON forcing_qnet_mean            =   0.0000000000000E+00
(PID.TID 0000.0001) %MON forcing_qnet_sd              =   0.0000000000000E+00
(PID.TID 0000.0001) %MON forcing_qnet_del2            =   0.0000000000000E+00
(PID.TID 0000.0001) %MON forcing_qsw_max              =   0.0000000000000E+00
(PID.TID 0000.0001) %MON forcing_qsw_min              =   0.0000000000000E+00
(PID.TID 0000.0001) %MON forcing_qsw_mean             =   0.0000000000000E+00
(PID.TID 0000.0001) %MON forcing_qsw_sd               =   0.0000000000000E+00
(PID.TID 0000.0001) %MON forcing_qsw_del2             =   0.0000000000000E+00
(PID.TID 0000.0001) %MON forcing_empmr_max            =   0.0000000000000E+00
(PID.TID 0000.0001) %MON forcing_empmr_min            =   0.0000000000000E+00
(PID.TID 0000.0001) %MON forcing_empmr_mean           =   0.0000000000000E+00
(PID.TID 0000.0001) %MON forcing_empmr_sd             =   0.0000000000000E+00
(PID.TID 0000.0001) %MON forcing_empmr_del2           =   0.0000000000000E+00
(PID.TID 0000.0001) %MON forcing_fu_max               =   0.0000000000000E+00
(PID.TID 0000.0001) %MON forcing_fu_min               =   0.0000000000000E+00
(PID.TID 0000.0001) %MON forcing_fu_mean              =   0.0000000000000E+00
(PID.TID 0000.0001) %MON forcing_fu_sd                =   0.0000000000000E+00
(PID.TID 0000.0001) %MON forcing_fu_del2              =   0.0000000000000E+00
(PID.TID 0000.0001) %MON forcing_fv_max               =   0.0000000000000E+00
(PID.TID 0000.0001) %MON forcing_fv_min               =   0.0000000000000E+00
(PID.TID 0000.0001) %MON forcing_fv_mean              =   0.0000000000000E+00
(PID.TID 0000.0001) %MON forcing_fv_sd                =   0.0000000000000E+00
(PID.TID 0000.0001) %MON forcing_fv_del2              =   0.0000000000000E+00
(PID.TID 0000.0001) %MON trAdv_CFL_u_max              =   4.3017648924962E-02
(PID.TID 0000.0001) %MON trAdv_CFL_v_max              =   4.2017522678244E-02
(PID.TID 0000.0001) %MON trAdv_CFL_w_max              =   7.6140471064718E-02
(PID.TID 0000.0001) %MON advcfl_uvel_max              =   4.1778341408943E-02
(PID.TID 0000.0001) %MON advcfl_vvel_max              =   4.0441125896236E-02
(PID.TID 0000.0001) %MON advcfl_wvel_max              =   8.9670414260278E-02
(PID.TID 0000.0001) %MON advcfl_W_hf_max              =   1.0087921604281E-01
(PID.TID 0000.0001) %MON pe_b_mean                    =   0.0000000000000E+00
(PID.TID 0000.0001) %MON ke_max                       =   6.3839615481872E-01
(PID.TID 0000.0001) %MON ke_mean                      =   3.1939991654939E-04
(PID.TID 0000.0001) %MON ke_vol                       =   1.3258927395736E+18
(PID.TID 0000.0001) %MON vort_r_min                   =  -1.2777323849346E-05
(PID.TID 0000.0001) %MON vort_r_max                   =   1.5367188948671E-05
(PID.TID 0000.0001) %MON vort_a_mean                  =  -2.1443554618601E-05
(PID.TID 0000.0001) %MON vort_a_sd                    =   7.3250396239086E-05
(PID.TID 0000.0001) %MON vort_p_mean                  =  -2.3136237674310E-05
(PID.TID 0000.0001) %MON vort_p_sd                    =   8.5528150649214E-05
(PID.TID 0000.0001) %MON surfExpan_theta_mean         =  -6.3943866278836E-08
(PID.TID 0000.0001) %MON surfExpan_salt_mean          =   7.2693993818743E-09
(PID.TID 0000.0001) // =======================================================
(PID.TID 0000.0001) // End MONITOR dynamic field statistics
(PID.TID 0000.0001) // =======================================================
(PID.TID 0000.0001) // =======================================================
(PID.TID 0000.0001) // Begin MONITOR ptracer field statistics
(PID.TID 0000.0001) // =======================================================
(PID.TID 0000.0001) %MON trcstat_ptracer01_max        =   2.4130830291181E+03
(PID.TID 0000.0001) %MON trcstat_ptracer01_min        =   1.7248843976665E+03
(PID.TID 0000.0001) %MON trcstat_ptracer01_mean       =   2.2529364053785E+03
(PID.TID 0000.0001) %MON trcstat_ptracer01_sd         =   8.1245091158361E+01
(PID.TID 0000.0001) %MON trcstat_ptracer01_del2       =   8.8006687435665E-03
(PID.TID 0000.0001) %MON trcstat_ptracer02_max        =   1.1854365754152E+01
(PID.TID 0000.0001) %MON trcstat_ptracer02_min        =  -5.8163034686193E-08
(PID.TID 0000.0001) %MON trcstat_ptracer02_mean       =   5.5627579322314E-02
(PID.TID 0000.0001) %MON trcstat_ptracer02_sd         =   4.7072702033788E-01
(PID.TID 0000.0001) %MON trcstat_ptracer02_del2       =   3.2063767498221E-04
(PID.TID 0000.0001) %MON trcstat_ptracer03_max        =   6.8662381044961E+00
(PID.TID 0000.0001) %MON trcstat_ptracer03_min        =  -1.4840697532513E-08
(PID.TID 0000.0001) %MON trcstat_ptracer03_mean       =   1.9943075476703E-02
(PID.TID 0000.0001) %MON trcstat_ptracer03_sd         =   1.4782076653770E-01
(PID.TID 0000.0001) %MON trcstat_ptracer03_del2       =   2.1779342393384E-04
(PID.TID 0000.0001) %MON trcstat_ptracer04_max        =   4.4621857890995E+01
(PID.TID 0000.0001) %MON trcstat_ptracer04_min        =  -2.5107002775807E-01
(PID.TID 0000.0001) %MON trcstat_ptracer04_mean       =   3.0605221337060E+01
(PID.TID 0000.0001) %MON trcstat_ptracer04_sd         =   9.0651115726111E+00
(PID.TID 0000.0001) %MON trcstat_ptracer04_del2       =   7.4629699481592E-04
(PID.TID 0000.0001) %MON trcstat_ptracer05_max        =   3.6470269447725E+00
(PID.TID 0000.0001) %MON trcstat_ptracer05_min        =   8.8172158488499E-02
(PID.TID 0000.0001) %MON trcstat_ptracer05_mean       =   2.1762834961652E+00
(PID.TID 0000.0001) %MON trcstat_ptracer05_sd         =   6.2490482189308E-01
(PID.TID 0000.0001) %MON trcstat_ptracer05_del2       =   4.6136499643864E-05
(PID.TID 0000.0001) %MON trcstat_ptracer06_max        =   2.7521433136668E+02
(PID.TID 0000.0001) %MON trcstat_ptracer06_min        =   1.1357210569615E+00
(PID.TID 0000.0001) %MON trcstat_ptracer06_mean       =   9.0930635255990E+01
(PID.TID 0000.0001) %MON trcstat_ptracer06_sd         =   5.1624184256266E+01
(PID.TID 0000.0001) %MON trcstat_ptracer06_del2       =   1.3904781413989E-03
(PID.TID 0000.0001) %MON trcstat_ptracer07_max        =   1.0778930415182E-03
(PID.TID 0000.0001) %MON trcstat_ptracer07_min        =  -2.5085975599202E-06
(PID.TID 0000.0001) %MON trcstat_ptracer07_mean       =   6.3292068998573E-04
(PID.TID 0000.0001) %MON trcstat_ptracer07_sd         =   2.0824767442938E-04
(PID.TID 0000.0001) %MON trcstat_ptracer07_del2       =   1.0334764130338E-07
(PID.TID 0000.0001) %MON trcstat_ptracer08_max        =   2.9258927560560E+02
(PID.TID 0000.0001) %MON trcstat_ptracer08_min        =   8.1407742959796E-08
(PID.TID 0000.0001) %MON trcstat_ptracer08_mean       =   2.2859635223237E-01
(PID.TID 0000.0001) %MON trcstat_ptracer08_sd         =   1.8010587325142E+00
(PID.TID 0000.0001) %MON trcstat_ptracer08_del2       =   2.9560555671566E-03
(PID.TID 0000.0001) %MON trcstat_ptracer09_max        =   3.9089375176615E+01
(PID.TID 0000.0001) %MON trcstat_ptracer09_min        =  -1.0552735699015E-07
(PID.TID 0000.0001) %MON trcstat_ptracer09_mean       =   2.3907340208636E-02
(PID.TID 0000.0001) %MON trcstat_ptracer09_sd         =   1.4685848506052E-01
(PID.TID 0000.0001) %MON trcstat_ptracer09_del2       =   1.2800701508320E-04
(PID.TID 0000.0001) %MON trcstat_ptracer10_max        =   2.3037726137429E+00
(PID.TID 0000.0001) %MON trcstat_ptracer10_min        =   3.3278580433305E-10
(PID.TID 0000.0001) %MON trcstat_ptracer10_mean       =   1.6514969123940E-03
(PID.TID 0000.0001) %MON trcstat_ptracer10_sd         =   1.0434263951811E-02
(PID.TID 0000.0001) %MON trcstat_ptracer10_del2       =   9.1145482286517E-06
(PID.TID 0000.0001) %MON trcstat_ptracer11_max        =   1.1178062130131E-02
(PID.TID 0000.0001) %MON trcstat_ptracer11_min        =   1.8057081948585E-11
(PID.TID 0000.0001) %MON trcstat_ptracer11_mean       =   1.3262706809755E-05
(PID.TID 0000.0001) %MON trcstat_ptracer11_sd         =   8.8347299835101E-05
(PID.TID 0000.0001) %MON trcstat_ptracer11_del2       =   8.9289944241020E-08
(PID.TID 0000.0001) %MON trcstat_ptracer12_max        =   1.0788737497283E+03
(PID.TID 0000.0001) %MON trcstat_ptracer12_min        =   4.9035327922852E-10
(PID.TID 0000.0001) %MON trcstat_ptracer12_mean       =   3.0129944273637E-02
(PID.TID 0000.0001) %MON trcstat_ptracer12_sd         =   1.6482328126922E+00
(PID.TID 0000.0001) %MON trcstat_ptracer12_del2       =   1.5530428144225E-04
(PID.TID 0000.0001) %MON trcstat_ptracer13_max        =   1.5258304647666E+02
(PID.TID 0000.0001) %MON trcstat_ptracer13_min        =   1.9018275658243E-10
(PID.TID 0000.0001) %MON trcstat_ptracer13_mean       =   3.7094068775202E-03
(PID.TID 0000.0001) %MON trcstat_ptracer13_sd         =   2.3419635990272E-01
(PID.TID 0000.0001) %MON trcstat_ptracer13_del2       =   2.2753950400280E-05
(PID.TID 0000.0001) %MON trcstat_ptracer14_max        =   9.1174748437654E+00
(PID.TID 0000.0001) %MON trcstat_ptracer14_min        =   1.4419684892251E-11
(PID.TID 0000.0001) %MON trcstat_ptracer14_mean       =   2.4174733679642E-04
(PID.TID 0000.0001) %MON trcstat_ptracer14_sd         =   1.3793627893020E-02
(PID.TID 0000.0001) %MON trcstat_ptracer14_del2       =   1.3383686781313E-06
(PID.TID 0000.0001) %MON trcstat_ptracer15_max        =   2.5121148704226E+01
(PID.TID 0000.0001) %MON trcstat_ptracer15_min        =  -1.8223852593372E-07
(PID.TID 0000.0001) %MON trcstat_ptracer15_mean       =   1.4885143394849E-02
(PID.TID 0000.0001) %MON trcstat_ptracer15_sd         =   1.1610924731229E-01
(PID.TID 0000.0001) %MON trcstat_ptracer15_del2       =   1.0094223045840E-05
(PID.TID 0000.0001) %MON trcstat_ptracer16_max        =   1.2665452256872E-02
(PID.TID 0000.0001) %MON trcstat_ptracer16_min        =  -5.7751569120093E-13
(PID.TID 0000.0001) %MON trcstat_ptracer16_mean       =   1.8101289301256E-06
(PID.TID 0000.0001) %MON trcstat_ptracer16_sd         =   2.4826480441903E-05
(PID.TID 0000.0001) %MON trcstat_ptracer16_del2       =   2.2463746386072E-08
(PID.TID 0000.0001) %MON trcstat_ptracer17_max        =   1.6447094284340E+01
(PID.TID 0000.0001) %MON trcstat_ptracer17_min        =  -5.2822214280328E-08
(PID.TID 0000.0001) %MON trcstat_ptracer17_mean       =   6.2368645130758E-03
(PID.TID 0000.0001) %MON trcstat_ptracer17_sd         =   5.6817364007045E-02
(PID.TID 0000.0001) %MON trcstat_ptracer17_del2       =   1.3368129098641E-05
(PID.TID 0000.0001) %MON trcstat_ptracer18_max        =   2.5684196935935E+03
(PID.TID 0000.0001) %MON trcstat_ptracer18_min        =   2.0146105982086E+03
(PID.TID 0000.0001) %MON trcstat_ptracer18_mean       =   2.3642447103184E+03
(PID.TID 0000.0001) %MON trcstat_ptracer18_sd         =   4.1988299733576E+01
(PID.TID 0000.0001) %MON trcstat_ptracer18_del2       =   4.9059017638257E-03
(PID.TID 0000.0001) %MON trcstat_ptracer19_max        =   4.0730217111278E+02
(PID.TID 0000.0001) %MON trcstat_ptracer19_min        =   2.5547489142243E-05
(PID.TID 0000.0001) %MON trcstat_ptracer19_mean       =   2.0187993395913E+01
(PID.TID 0000.0001) %MON trcstat_ptracer19_sd         =   5.4429658892224E+01
(PID.TID 0000.0001) %MON trcstat_ptracer19_del2       =   1.4097097150679E-02
(PID.TID 0000.0001) %MON trcstat_ptracer20_max        =   9.8870353055254E-02
(PID.TID 0000.0001) %MON trcstat_ptracer20_min        =  -4.2724725301697E-11
(PID.TID 0000.0001) %MON trcstat_ptracer20_mean       =   1.1314653964419E-04
(PID.TID 0000.0001) %MON trcstat_ptracer20_sd         =   3.9877467202803E-04
(PID.TID 0000.0001) %MON trcstat_ptracer20_del2       =   2.4553325737203E-07
(PID.TID 0000.0001) %MON trcstat_ptracer21_max        =   6.2874037255124E+01
(PID.TID 0000.0001) %MON trcstat_ptracer21_min        =  -3.2874670489138E-06
(PID.TID 0000.0001) %MON trcstat_ptracer21_mean       =   1.1178147879013E-01
(PID.TID 0000.0001) %MON trcstat_ptracer21_sd         =   1.0538083588147E+00
(PID.TID 0000.0001) %MON trcstat_ptracer21_del2       =   1.5739722888976E-03
(PID.TID 0000.0001) %MON trcstat_ptracer22_max        =   6.1987867139605E+01
(PID.TID 0000.0001) %MON trcstat_ptracer22_min        =  -3.9140929668132E-05
(PID.TID 0000.0001) %MON trcstat_ptracer22_mean       =   5.5570247797723E-02
(PID.TID 0000.0001) %MON trcstat_ptracer22_sd         =   5.3037756414392E-01
(PID.TID 0000.0001) %MON trcstat_ptracer22_del2       =   1.0388536928863E-03
(PID.TID 0000.0001) %MON trcstat_ptracer23_max        =   4.0214993570819E-11
(PID.TID 0000.0001) %MON trcstat_ptracer23_min        =  -9.6000221387611E-20
(PID.TID 0000.0001) %MON trcstat_ptracer23_mean       =   1.4713426850600E-13
(PID.TID 0000.0001) %MON trcstat_ptracer23_sd         =   5.4346738658768E-13
(PID.TID 0000.0001) %MON trcstat_ptracer23_del2       =   1.7960155642222E-16
(PID.TID 0000.0001) %MON trcstat_ptracer24_max        =   4.0214993570819E-11
(PID.TID 0000.0001) %MON trcstat_ptracer24_min        =  -9.6000221387611E-20
(PID.TID 0000.0001) %MON trcstat_ptracer24_mean       =   1.4713426850600E-13
(PID.TID 0000.0001) %MON trcstat_ptracer24_sd         =   5.4346738658768E-13
(PID.TID 0000.0001) %MON trcstat_ptracer24_del2       =   1.7960155642222E-16
(PID.TID 0000.0001) %MON trcstat_ptracer25_max        =   7.0292949414489E+00
(PID.TID 0000.0001) %MON trcstat_ptracer25_min        =  -7.0969535624016E-07
(PID.TID 0000.0001) %MON trcstat_ptracer25_mean       =   1.3122812863096E-02
(PID.TID 0000.0001) %MON trcstat_ptracer25_sd         =   1.1066648092590E-01
(PID.TID 0000.0001) %MON trcstat_ptracer25_del2       =   1.6166228425873E-04
(PID.TID 0000.0001) %MON trcstat_ptracer26_max        =   9.1521581753597E+00
(PID.TID 0000.0001) %MON trcstat_ptracer26_min        =  -7.9522642160140E-06
(PID.TID 0000.0001) %MON trcstat_ptracer26_mean       =   7.5585605409497E-03
(PID.TID 0000.0001) %MON trcstat_ptracer26_sd         =   7.0559750072483E-02
(PID.TID 0000.0001) %MON trcstat_ptracer26_del2       =   1.2005928169852E-04
(PID.TID 0000.0001) %MON trcstat_ptracer27_max        =   6.0701875745042E-12
(PID.TID 0000.0001) %MON trcstat_ptracer27_min        =  -1.4490599503981E-20
(PID.TID 0000.0001) %MON trcstat_ptracer27_mean       =   2.2208946190080E-14
(PID.TID 0000.0001) %MON trcstat_ptracer27_sd         =   8.2032813064429E-14
(PID.TID 0000.0001) %MON trcstat_ptracer27_del2       =   2.7109668893105E-17
(PID.TID 0000.0001) %MON trcstat_ptracer28_max        =   6.0701875745042E-12
(PID.TID 0000.0001) %MON trcstat_ptracer28_min        =  -1.4490599503981E-20
(PID.TID 0000.0001) %MON trcstat_ptracer28_mean       =   2.2208946190080E-14
(PID.TID 0000.0001) %MON trcstat_ptracer28_sd         =   8.2032813064429E-14
(PID.TID 0000.0001) %MON trcstat_ptracer28_del2       =   2.7109668893105E-17
(PID.TID 0000.0001) %MON trcstat_ptracer29_max        =   3.2774159575026E-01
(PID.TID 0000.0001) %MON trcstat_ptracer29_min        =  -1.7210014909843E-08
(PID.TID 0000.0001) %MON trcstat_ptracer29_mean       =   5.6285414210022E-04
(PID.TID 0000.0001) %MON trcstat_ptracer29_sd         =   5.3542368911123E-03
(PID.TID 0000.0001) %MON trcstat_ptracer29_del2       =   7.3754832316194E-06
(PID.TID 0000.0001) %MON trcstat_ptracer30_max        =   4.8251023160558E-01
(PID.TID 0000.0001) %MON trcstat_ptracer30_min        =  -7.6037519972435E-07
(PID.TID 0000.0001) %MON trcstat_ptracer30_mean       =   8.0713107464245E-04
(PID.TID 0000.0001) %MON trcstat_ptracer30_sd         =   7.3935538521781E-03
(PID.TID 0000.0001) %MON trcstat_ptracer30_del2       =   1.1189899077815E-05
(PID.TID 0000.0001) %MON trcstat_ptracer31_max        =   2.3711670212907E-14
(PID.TID 0000.0001) %MON trcstat_ptracer31_min        =  -5.6603904312427E-23
(PID.TID 0000.0001) %MON trcstat_ptracer31_mean       =   8.6753696055001E-17
(PID.TID 0000.0001) %MON trcstat_ptracer31_sd         =   3.2044067603293E-16
(PID.TID 0000.0001) %MON trcstat_ptracer31_del2       =   1.0589714411369E-19
(PID.TID 0000.0001) %MON trcstat_ptracer32_max        =   2.3711670212907E-14
(PID.TID 0000.0001) %MON trcstat_ptracer32_min        =  -5.6603904312427E-23
(PID.TID 0000.0001) %MON trcstat_ptracer32_mean       =   8.6753696055001E-17
(PID.TID 0000.0001) %MON trcstat_ptracer32_sd         =   3.2044067603293E-16
(PID.TID 0000.0001) %MON trcstat_ptracer32_del2       =   1.0589714411369E-19
(PID.TID 0000.0001) %MON trcstat_ptracer33_max        =   6.9175571140254E-03
(PID.TID 0000.0001) %MON trcstat_ptracer33_min        =  -8.8050878011842E-10
(PID.TID 0000.0001) %MON trcstat_ptracer33_mean       =   8.1997497915380E-06
(PID.TID 0000.0001) %MON trcstat_ptracer33_sd         =   6.5413904817515E-05
(PID.TID 0000.0001) %MON trcstat_ptracer33_del2       =   7.4217516721644E-08
(PID.TID 0000.0001) %MON trcstat_ptracer34_max        =   3.3130940969522E-03
(PID.TID 0000.0001) %MON trcstat_ptracer34_min        =  -7.0140574761541E-09
(PID.TID 0000.0001) %MON trcstat_ptracer34_mean       =   3.4596330018095E-06
(PID.TID 0000.0001) %MON trcstat_ptracer34_sd         =   2.5234407416884E-05
(PID.TID 0000.0001) %MON trcstat_ptracer34_del2       =   4.1297310292473E-08
(PID.TID 0000.0001) %MON trcstat_ptracer35_max        =   4.0214994155641E-14
(PID.TID 0000.0001) %MON trcstat_ptracer35_min        =  -9.6000221481421E-23
(PID.TID 0000.0001) %MON trcstat_ptracer35_mean       =   1.4713426850317E-16
(PID.TID 0000.0001) %MON trcstat_ptracer35_sd         =   5.4346738655606E-16
(PID.TID 0000.0001) %MON trcstat_ptracer35_del2       =   1.7960155637521E-19
(PID.TID 0000.0001) %MON trcstat_ptracer36_max        =   4.0214994155641E-14
(PID.TID 0000.0001) %MON trcstat_ptracer36_min        =  -9.6000221481421E-23
(PID.TID 0000.0001) %MON trcstat_ptracer36_mean       =   1.4713426850317E-16
(PID.TID 0000.0001) %MON trcstat_ptracer36_sd         =   5.4346738655606E-16
(PID.TID 0000.0001) %MON trcstat_ptracer36_del2       =   1.7960155637521E-19
(PID.TID 0000.0001) // =======================================================
(PID.TID 0000.0001) // End MONITOR ptracer field statistics
(PID.TID 0000.0001) // =======================================================
 Computing Diagnostic #    183  TRAC01       Counter:       1   Parms: SMR     MR      
 Computing Diagnostic #    198  TRAC02       Counter:       1   Parms: SMR     MR      
 Computing Diagnostic #    213  TRAC03       Counter:       1   Parms: SMR     MR      
 Computing Diagnostic #    228  TRAC04       Counter:       1   Parms: SMR     MR      
 Computing Diagnostic #    243  TRAC05       Counter:       1   Parms: SMR     MR      
 Computing Diagnostic #    258  TRAC06       Counter:       1   Parms: SMR     MR      
 Computing Diagnostic #    273  TRAC07       Counter:       1   Parms: SMR     MR      
 Computing Diagnostic #    288  TRAC08       Counter:       1   Parms: SMR     MR      
 Computing Diagnostic #    303  TRAC09       Counter:       1   Parms: SMR     MR      
 Computing Diagnostic #    318  TRAC10       Counter:       1   Parms: SMR     MR      
 Computing Diagnostic #    333  TRAC11       Counter:       1   Parms: SMR     MR      
 Computing Diagnostic #    348  TRAC12       Counter:       1   Parms: SMR     MR      
 Computing Diagnostic #    363  TRAC13       Counter:       1   Parms: SMR     MR      
 Computing Diagnostic #    378  TRAC14       Counter:       1   Parms: SMR     MR      
 Computing Diagnostic #    393  TRAC15       Counter:       1   Parms: SMR     MR      
 Computing Diagnostic #    408  TRAC16       Counter:       1   Parms: SMR     MR      
 Computing Diagnostic #    423  TRAC17       Counter:       1   Parms: SMR     MR      
 Computing Diagnostic #    438  TRAC18       Counter:       1   Parms: SMR     MR      
 Computing Diagnostic #    453  TRAC19       Counter:       1   Parms: SMR     MR      
 Computing Diagnostic #    468  TRAC20       Counter:       1   Parms: SMR     MR      
 Computing Diagnostic #    483  TRAC21       Counter:       1   Parms: SMR     MR      
 Computing Diagnostic #    498  TRAC22       Counter:       1   Parms: SMR     MR      
 Computing Diagnostic #    513  TRAC23       Counter:       1   Parms: SMR     MR      
 Computing Diagnostic #    528  TRAC24       Counter:       1   Parms: SMR     MR      
 Computing Diagnostic #    543  TRAC25       Counter:       1   Parms: SMR     MR      
 Computing Diagnostic #    558  TRAC26       Counter:       1   Parms: SMR     MR      
 Computing Diagnostic #    573  TRAC27       Counter:       1   Parms: SMR     MR      
 Computing Diagnostic #    588  TRAC28       Counter:       1   Parms: SMR     MR      
 Computing Diagnostic #    603  TRAC29       Counter:       1   Parms: SMR     MR      
 Computing Diagnostic #    618  TRAC30       Counter:       1   Parms: SMR     MR      
 Computing Diagnostic #    633  TRAC31       Counter:       1   Parms: SMR     MR      
 Computing Diagnostic #    648  TRAC32       Counter:       1   Parms: SMR     MR      
 Computing Diagnostic #    663  TRAC33       Counter:       1   Parms: SMR     MR      
 Computing Diagnostic #    678  TRAC34       Counter:       1   Parms: SMR     MR      
 Computing Diagnostic #    693  TRAC35       Counter:       1   Parms: SMR     MR      
 Computing Diagnostic #    708  TRAC36       Counter:       1   Parms: SMR     MR      
 Computing Diagnostic #    990  PAR          Counter:       1   Parms: SM P    MR      
 Computing Diagnostic #    724  PP           Counter:       1   Parms: SM P    MR      
 Computing Diagnostic #    725  Nfix         Counter:       1   Parms: SM P    MR      
 Computing Diagnostic #    726  Denit        Counter:       1   Parms: SM P    MR      
 Computing Diagnostic #   1035  pH           Counter:       1   Parms: SM      MR      
 Computing Diagnostic #   1036  pCO2         Counter:       1   Parms: SM P    MR      
 Computing Diagnostic #    728  PC0001       Counter:       1   Parms: SM P    MR      
 Computing Diagnostic #    727  PChl0001     Counter:       1   Parms: SM P    MR      
 Computing Diagnostic #    729  VN0001       Counter:       1   Parms: SM P    MR      
 Computing Diagnostic #    730  MODE0001     Counter:       1   Parms: SM P    MR      
 Computing Diagnostic #    731  Fe_C0001     Counter:       1   Parms: SM P    MR      
 Computing Diagnostic #    732  exQc0001     Counter:       1   Parms: SM P    MR      
 Computing Diagnostic #    733  PCg0001      Counter:       1   Parms: SM P    MR      
 Computing Diagnostic #    734  CChl0001     Counter:       1   Parms: SM P    MR      
 Computing Diagnostic #    735  NChl0001     Counter:       1   Parms: SM P    MR      
 Computing Diagnostic #    736  NPho0001     Counter:       1   Parms: SM P    MR      
 Computing Diagnostic #    737  NSyn0001     Counter:       1   Parms: SM P    MR      
 Computing Diagnostic #    738  NPrn0001     Counter:       1   Parms: SM P    MR      
 Computing Diagnostic #    739  NRNA0001     Counter:       1   Parms: SM P    MR      
 Computing Diagnostic #    740  NDNA0001     Counter:       1   Parms: SM P    MR      
 Computing Diagnostic #    741  NSTO0001     Counter:       1   Parms: SM P    MR      
 Computing Diagnostic #    742  NEXC0001     Counter:       1   Parms: SM P    MR      
 Computing Diagnostic #    743  PRNA0001     Counter:       1   Parms: SM P    MR      
 Computing Diagnostic #    744  PDNA0001     Counter:       1   Parms: SM P    MR      
 Computing Diagnostic #    745  PTHY0001     Counter:       1   Parms: SM P    MR      
 Computing Diagnostic #    746  PCON0001     Counter:       1   Parms: SM P    MR      
 Computing Diagnostic #    747  PSTO0001     Counter:       1   Parms: SM P    MR      
 Computing Diagnostic #    748  PEXC0001     Counter:       1   Parms: SM P    MR      
 Computing Diagnostic #    749  FPHO0001     Counter:       1   Parms: SM P    MR      
 Computing Diagnostic #    750  FSTO0001     Counter:       1   Parms: SM P    MR      
 Computing Diagnostic #    751  FEXC0001     Counter:       1   Parms: SM P    MR      
 Computing Diagnostic #    759  CChl0002     Counter:       1   Parms: SM P    MR      
 Computing Diagnostic #    760  NChl0002     Counter:       1   Parms: SM P    MR      
 Computing Diagnostic #    761  NPho0002     Counter:       1   Parms: SM P    MR      
 Computing Diagnostic #    762  NSyn0002     Counter:       1   Parms: SM P    MR      
 Computing Diagnostic #    763  NPrn0002     Counter:       1   Parms: SM P    MR      
 Computing Diagnostic #    764  NRNA0002     Counter:       1   Parms: SM P    MR      
 Computing Diagnostic #    765  NDNA0002     Counter:       1   Parms: SM P    MR      
 Computing Diagnostic #    766  NSTO0002     Counter:       1   Parms: SM P    MR      
 Computing Diagnostic #    767  NEXC0002     Counter:       1   Parms: SM P    MR      
 Computing Diagnostic #    768  PRNA0002     Counter:       1   Parms: SM P    MR      
 Computing Diagnostic #    769  PDNA0002     Counter:       1   Parms: SM P    MR      
 Computing Diagnostic #    770  PTHY0002     Counter:       1   Parms: SM P    MR      
 Computing Diagnostic #    771  PCON0002     Counter:       1   Parms: SM P    MR      
 Computing Diagnostic #    772  PSTO0002     Counter:       1   Parms: SM P    MR      
 Computing Diagnostic #    773  PEXC0002     Counter:       1   Parms: SM P    MR      
 Computing Diagnostic #    774  FPHO0002     Counter:       1   Parms: SM P    MR      
 Computing Diagnostic #    775  FSTO0002     Counter:       1   Parms: SM P    MR      
 Computing Diagnostic #    776  FEXC0002     Counter:       1   Parms: SM P    MR      
 Computing Diagnostic #    753  PC0002       Counter:       1   Parms: SM P    MR      
 Computing Diagnostic #    752  PChl0002     Counter:       1   Parms: SM P    MR      
 Computing Diagnostic #    754  VN0002       Counter:       1   Parms: SM P    MR      
 Computing Diagnostic #    755  MODE0002     Counter:       1   Parms: SM P    MR      
 Computing Diagnostic #    756  Fe_C0002     Counter:       1   Parms: SM P    MR      
 Computing Diagnostic #    757  exQc0002     Counter:       1   Parms: SM P    MR      
 Computing Diagnostic #    758  PCg0002      Counter:       1   Parms: SM P    MR      
 Computing Diagnostic #    784  a001         Counter:       4   Parms: SM P    MR      
 Computing Diagnostic #    800  a002         Counter:       4   Parms: SM P    MR      
 Computing Diagnostic #    816  a003         Counter:       4   Parms: SM P    MR      
 Computing Diagnostic #    832  a004         Counter:       4   Parms: SM P    MR      
 Computing Diagnostic #    848  a005         Counter:       4   Parms: SM P    MR      
 Computing Diagnostic #    864  a006         Counter:       4   Parms: SM P    MR      
 Computing Diagnostic #    880  a007         Counter:       4   Parms: SM P    MR      
 Computing Diagnostic #    896  a008         Counter:       4   Parms: SM P    MR      
 Computing Diagnostic #    912  a009         Counter:       4   Parms: SM P    MR      
 Computing Diagnostic #    928  a010         Counter:       4   Parms: SM P    MR      
 Computing Diagnostic #    944  a011         Counter:       4   Parms: SM P    MR      
 Computing Diagnostic #    960  a012         Counter:       4   Parms: SM P    MR      
 Computing Diagnostic #    976  a013         Counter:       4   Parms: SM P    MR      
 Computing Diagnostic #    785  bt001        Counter:       4   Parms: SM P    MR      
 Computing Diagnostic #    801  bt002        Counter:       4   Parms: SM P    MR      
 Computing Diagnostic #    817  bt003        Counter:       4   Parms: SM P    MR      
 Computing Diagnostic #    833  bt004        Counter:       4   Parms: SM P    MR      
 Computing Diagnostic #    849  bt005        Counter:       4   Parms: SM P    MR      
 Computing Diagnostic #    865  bt006        Counter:       4   Parms: SM P    MR      
 Computing Diagnostic #    881  bt007        Counter:       4   Parms: SM P    MR      
 Computing Diagnostic #    897  bt008        Counter:       4   Parms: SM P    MR      
 Computing Diagnostic #    913  bt009        Counter:       4   Parms: SM P    MR      
 Computing Diagnostic #    929  bt010        Counter:       4   Parms: SM P    MR      
 Computing Diagnostic #    945  bt011        Counter:       4   Parms: SM P    MR      
 Computing Diagnostic #    961  bt012        Counter:       4   Parms: SM P    MR      
 Computing Diagnostic #    977  bt013        Counter:       4   Parms: SM P    MR      
 Computing Diagnostic #    786  bb001        Counter:       4   Parms: SM P    MR      
 Computing Diagnostic #    802  bb002        Counter:       4   Parms: SM P    MR      
 Computing Diagnostic #    818  bb003        Counter:       4   Parms: SM P    MR      
 Computing Diagnostic #    834  bb004        Counter:       4   Parms: SM P    MR      
 Computing Diagnostic #    850  bb005        Counter:       4   Parms: SM P    MR      
 Computing Diagnostic #    882  bb007        Counter:       4   Parms: SM P    MR      
 Computing Diagnostic #    898  bb008        Counter:       4   Parms: SM P    MR      
 Computing Diagnostic #    914  bb009        Counter:       4   Parms: SM P    MR      
 Computing Diagnostic #    930  bb010        Counter:       4   Parms: SM P    MR      
 Computing Diagnostic #    946  bb011        Counter:       4   Parms: SM P    MR      
 Computing Diagnostic #    962  bb012        Counter:       4   Parms: SM P    MR      
 Computing Diagnostic #    978  bb013        Counter:       4   Parms: SM P    MR      
 Computing Diagnostic #    793  aCDOM001     Counter:       4   Parms: SM P    MR      
 Computing Diagnostic #    809  aCDOM002     Counter:       4   Parms: SM P    MR      
 Computing Diagnostic #    825  aCDOM003     Counter:       4   Parms: SM P    MR      
 Computing Diagnostic #    841  aCDOM004     Counter:       4   Parms: SM P    MR      
 Computing Diagnostic #    857  aCDOM005     Counter:       4   Parms: SM P    MR      
 Computing Diagnostic #    873  aCDOM006     Counter:       4   Parms: SM P    MR      
 Computing Diagnostic #    889  aCDOM007     Counter:       4   Parms: SM P    MR      
 Computing Diagnostic #    905  aCDOM008     Counter:       4   Parms: SM P    MR      
 Computing Diagnostic #    921  aCDOM009     Counter:       4   Parms: SM P    MR      
 Computing Diagnostic #    937  aCDOM010     Counter:       4   Parms: SM P    MR      
 Computing Diagnostic #    953  aCDOM011     Counter:       4   Parms: SM P    MR      
 Computing Diagnostic #    969  aCDOM012     Counter:       4   Parms: SM P    MR      
 Computing Diagnostic #    985  aCDOM013     Counter:       4   Parms: SM P    MR      
 Computing Diagnostic #    866  bb006        Counter:       4   Parms: SM P    MR      
 Computing Diagnostic #    779  Ed001        Counter:       4   Parms: WM P    LR      
 Computing Diagnostic #    795  Ed002        Counter:       4   Parms: WM P    LR      
 Computing Diagnostic #    811  Ed003        Counter:       4   Parms: WM P    LR      
 Computing Diagnostic #    827  Ed004        Counter:       4   Parms: WM P    LR      
 Computing Diagnostic #    843  Ed005        Counter:       4   Parms: WM P    LR      
 Computing Diagnostic #    859  Ed006        Counter:       4   Parms: WM P    LR      
 Computing Diagnostic #    875  Ed007        Counter:       4   Parms: WM P    LR      
 Computing Diagnostic #    891  Ed008        Counter:       4   Parms: WM P    LR      
 Computing Diagnostic #    907  Ed009        Counter:       4   Parms: WM P    LR      
 Computing Diagnostic #    923  Ed010        Counter:       4   Parms: WM P    LR      
 Computing Diagnostic #    939  Ed011        Counter:       4   Parms: WM P    LR      
 Computing Diagnostic #    955  Ed012        Counter:       4   Parms: WM P    LR      
 Computing Diagnostic #    971  Ed013        Counter:       4   Parms: WM P    LR      
 Computing Diagnostic #    780  Es001        Counter:       4   Parms: WM P    LR      
 Computing Diagnostic #    796  Es002        Counter:       4   Parms: WM P    LR      
 Computing Diagnostic #    812  Es003        Counter:       4   Parms: WM P    LR      
 Computing Diagnostic #    828  Es004        Counter:       4   Parms: WM P    LR      
 Computing Diagnostic #    844  Es005        Counter:       4   Parms: WM P    LR      
 Computing Diagnostic #    860  Es006        Counter:       4   Parms: WM P    LR      
 Computing Diagnostic #    876  Es007        Counter:       4   Parms: WM P    LR      
 Computing Diagnostic #    892  Es008        Counter:       4   Parms: WM P    LR      
 Computing Diagnostic #    908  Es009        Counter:       4   Parms: WM P    LR      
 Computing Diagnostic #    924  Es010        Counter:       4   Parms: WM P    LR      
 Computing Diagnostic #    940  Es011        Counter:       4   Parms: WM P    LR      
 Computing Diagnostic #    956  Es012        Counter:       4   Parms: WM P    LR      
 Computing Diagnostic #    972  Es013        Counter:       4   Parms: WM P    LR      
 Computing Diagnostic #    781  Eu001        Counter:       4   Parms: WM P    LR      
 Computing Diagnostic #    797  Eu002        Counter:       4   Parms: WM P    LR      
 Computing Diagnostic #    813  Eu003        Counter:       4   Parms: WM P    LR      
 Computing Diagnostic #    829  Eu004        Counter:       4   Parms: WM P    LR      
 Computing Diagnostic #    845  Eu005        Counter:       4   Parms: WM P    LR      
 Computing Diagnostic #    861  Eu006        Counter:       4   Parms: WM P    LR      
 Computing Diagnostic #    877  Eu007        Counter:       4   Parms: WM P    LR      
 Computing Diagnostic #    893  Eu008        Counter:       4   Parms: WM P    LR      
 Computing Diagnostic #    909  Eu009        Counter:       4   Parms: WM P    LR      
 Computing Diagnostic #    925  Eu010        Counter:       4   Parms: WM P    LR      
 Computing Diagnostic #    941  Eu011        Counter:       4   Parms: WM P    LR      
 Computing Diagnostic #    957  Eu012        Counter:       4   Parms: WM P    LR      
 Computing Diagnostic #    973  Eu013        Counter:       4   Parms: WM P    LR      
 Computing Diagnostic #    782  PAR001       Counter:       4   Parms: SM P    MR      
 Computing Diagnostic #    798  PAR002       Counter:       4   Parms: SM P    MR      
 Computing Diagnostic #    814  PAR003       Counter:       4   Parms: SM P    MR      
 Computing Diagnostic #    830  PAR004       Counter:       4   Parms: SM P    MR      
 Computing Diagnostic #    846  PAR005       Counter:       4   Parms: SM P    MR      
 Computing Diagnostic #    862  PAR006       Counter:       4   Parms: SM P    MR      
 Computing Diagnostic #    878  PAR007       Counter:       4   Parms: SM P    MR      
 Computing Diagnostic #    894  PAR008       Counter:       4   Parms: SM P    MR      
 Computing Diagnostic #    910  PAR009       Counter:       4   Parms: SM P    MR      
 Computing Diagnostic #    926  PAR010       Counter:       4   Parms: SM P    MR      
 Computing Diagnostic #    942  PAR011       Counter:       4   Parms: SM P    MR      
 Computing Diagnostic #    958  PAR012       Counter:       4   Parms: SM P    MR      
 Computing Diagnostic #    974  PAR013       Counter:       4   Parms: SM P    MR      
 Computing Diagnostic #   1037  fluxCO2      Counter:       4   Parms: SM      L1      
 Computing Diagnostic #   1038  gDICsurf     Counter:       4   Parms: SM      L1      
 Computing Diagnostic #   1039  gALKsurf     Counter:       4   Parms: SM      L1      
 Computing Diagnostic #   1040  gO2surf      Counter:       4   Parms: SM      L1      
 Compute Stats, Diag. #    724  PP        vol(   0 ): 1.326E+18  Parms: SM P    MR      
 Compute Stats, Diag. #    725  Nfix      vol(   0 ): 1.326E+18  Parms: SM P    MR      
 Compute Stats, Diag. #    726  Denit     vol(   0 ): 1.326E+18  Parms: SM P    MR      
(PID.TID 0000.0001) DIAGSTATS_CLOSE_IO: close file: statsPP.0000000000.txt , unit=     9
(PID.TID 0000.0001) DIAGSTATS_CLOSE_IO: close file: statsNfix.0000000000.txt , unit=    10
(PID.TID 0000.0001) DIAGSTATS_CLOSE_IO: close file: statsDenit.0000000000.txt , unit=    16
(PID.TID 0000.0001) %CHECKPOINT         4 ckptA
(PID.TID 0000.0001)   Seconds in section "ALL                    [THE_MODEL_MAIN]":
(PID.TID 0000.0001)           User time:   24.8335132598877
(PID.TID 0000.0001)         System time:  0.000000000000000E+000
(PID.TID 0000.0001)     Wall clock time:   28.9881610870361
(PID.TID 0000.0001)          No. starts:           1
(PID.TID 0000.0001)           No. stops:           1
(PID.TID 0000.0001)   Seconds in section "INITIALISE_FIXED       [THE_MODEL_MAIN]":
(PID.TID 0000.0001)           User time:   5.49987684190273
(PID.TID 0000.0001)         System time:  0.000000000000000E+000
(PID.TID 0000.0001)     Wall clock time:   6.63125896453857
(PID.TID 0000.0001)          No. starts:           1
(PID.TID 0000.0001)           No. stops:           1
(PID.TID 0000.0001)   Seconds in section "THE_MAIN_LOOP          [THE_MODEL_MAIN]":
(PID.TID 0000.0001)           User time:   19.3312773704529
(PID.TID 0000.0001)         System time:  0.000000000000000E+000
(PID.TID 0000.0001)     Wall clock time:   22.3371930122375
(PID.TID 0000.0001)          No. starts:           1
(PID.TID 0000.0001)           No. stops:           1
(PID.TID 0000.0001)   Seconds in section "INITIALISE_VARIA    [THE_MAIN_LOOP]":
(PID.TID 0000.0001)           User time:   4.60196352005005
(PID.TID 0000.0001)         System time:  0.000000000000000E+000
(PID.TID 0000.0001)     Wall clock time:   4.77785110473633
(PID.TID 0000.0001)          No. starts:           1
(PID.TID 0000.0001)           No. stops:           1
(PID.TID 0000.0001)   Seconds in section "MAIN LOOP           [THE_MAIN_LOOP]":
(PID.TID 0000.0001)           User time:   14.7292966842651
(PID.TID 0000.0001)         System time:  0.000000000000000E+000
(PID.TID 0000.0001)     Wall clock time:   17.5593240261078
(PID.TID 0000.0001)          No. starts:           1
(PID.TID 0000.0001)           No. stops:           1
(PID.TID 0000.0001)   Seconds in section "MAIN_DO_LOOP        [THE_MAIN_LOOP]":
(PID.TID 0000.0001)           User time:   14.7292728424072
(PID.TID 0000.0001)         System time:  0.000000000000000E+000
(PID.TID 0000.0001)     Wall clock time:   17.5592949390411
(PID.TID 0000.0001)          No. starts:           4
(PID.TID 0000.0001)           No. stops:           4
(PID.TID 0000.0001)   Seconds in section "FORWARD_STEP        [MAIN_DO_LOOP]":
(PID.TID 0000.0001)           User time:   14.7292289733887
(PID.TID 0000.0001)         System time:  0.000000000000000E+000
(PID.TID 0000.0001)     Wall clock time:   17.5592503547668
(PID.TID 0000.0001)          No. starts:           4
(PID.TID 0000.0001)           No. stops:           4
(PID.TID 0000.0001)   Seconds in section "DO_STATEVARS_DIAGS  [FORWARD_STEP]":
(PID.TID 0000.0001)           User time:  2.451324462890625E-002
(PID.TID 0000.0001)         System time:  0.000000000000000E+000
(PID.TID 0000.0001)     Wall clock time:  2.546811103820801E-002
(PID.TID 0000.0001)          No. starts:           8
(PID.TID 0000.0001)           No. stops:           8
(PID.TID 0000.0001)   Seconds in section "LOAD_FIELDS_DRIVER  [FORWARD_STEP]":
(PID.TID 0000.0001)           User time:  0.334248542785645
(PID.TID 0000.0001)         System time:  0.000000000000000E+000
(PID.TID 0000.0001)     Wall clock time:  0.346225976943970
(PID.TID 0000.0001)          No. starts:           4
(PID.TID 0000.0001)           No. stops:           4
(PID.TID 0000.0001)   Seconds in section "EXF_GETFORCING     [LOAD_FLDS_DRIVER]":
(PID.TID 0000.0001)           User time:  0.188809394836426
(PID.TID 0000.0001)         System time:  0.000000000000000E+000
(PID.TID 0000.0001)     Wall clock time:  0.188769102096558
(PID.TID 0000.0001)          No. starts:           4
(PID.TID 0000.0001)           No. stops:           4
(PID.TID 0000.0001)   Seconds in section "EXTERNAL_FLDS_LOAD [LOAD_FLDS_DRIVER]":
(PID.TID 0000.0001)           User time:  1.668930053710938E-003
(PID.TID 0000.0001)         System time:  0.000000000000000E+000
(PID.TID 0000.0001)     Wall clock time:  1.655101776123047E-003
(PID.TID 0000.0001)          No. starts:           4
(PID.TID 0000.0001)           No. stops:           4
(PID.TID 0000.0001)   Seconds in section "DO_ATMOSPHERIC_PHYS [FORWARD_STEP]":
(PID.TID 0000.0001)           User time:  3.528594970703125E-005
(PID.TID 0000.0001)         System time:  0.000000000000000E+000
(PID.TID 0000.0001)     Wall clock time:  4.577636718750000E-005
(PID.TID 0000.0001)          No. starts:           4
(PID.TID 0000.0001)           No. stops:           4
(PID.TID 0000.0001)   Seconds in section "DO_OCEANIC_PHYS     [FORWARD_STEP]":
(PID.TID 0000.0001)           User time:  7.087707519531250E-003
(PID.TID 0000.0001)         System time:  0.000000000000000E+000
(PID.TID 0000.0001)     Wall clock time:  6.947755813598633E-003
(PID.TID 0000.0001)          No. starts:           4
(PID.TID 0000.0001)           No. stops:           4
(PID.TID 0000.0001)   Seconds in section "GCHEM_CALC_TENDENCY [FORWARD_STEP]":
(PID.TID 0000.0001)           User time:  0.000000000000000E+000
(PID.TID 0000.0001)         System time:  0.000000000000000E+000
(PID.TID 0000.0001)     Wall clock time:  2.336502075195312E-005
(PID.TID 0000.0001)          No. starts:           4
(PID.TID 0000.0001)           No. stops:           4
(PID.TID 0000.0001)   Seconds in section "THERMODYNAMICS      [FORWARD_STEP]":
(PID.TID 0000.0001)           User time:   1.71902275085449
(PID.TID 0000.0001)         System time:  0.000000000000000E+000
(PID.TID 0000.0001)     Wall clock time:   1.71898579597473
(PID.TID 0000.0001)          No. starts:           4
(PID.TID 0000.0001)           No. stops:           4
(PID.TID 0000.0001)   Seconds in section "OFFLINE_FLDS_LOAD   [FORWARD_STEP]":
(PID.TID 0000.0001)           User time:  3.404617309570312E-003
(PID.TID 0000.0001)         System time:  0.000000000000000E+000
(PID.TID 0000.0001)     Wall clock time:  3.438949584960938E-003
(PID.TID 0000.0001)          No. starts:           4
(PID.TID 0000.0001)           No. stops:           4
(PID.TID 0000.0001)   Seconds in section "TRC_CORRECTION_STEP [FORWARD_STEP]":
(PID.TID 0000.0001)           User time:  5.722045898437500E-006
(PID.TID 0000.0001)         System time:  0.000000000000000E+000
(PID.TID 0000.0001)     Wall clock time:  2.336502075195312E-005
(PID.TID 0000.0001)          No. starts:           4
(PID.TID 0000.0001)           No. stops:           4
(PID.TID 0000.0001)   Seconds in section "GCHEM_FORCING_SEP  [FORWARD_STEP]":
(PID.TID 0000.0001)           User time:  0.707238197326660
(PID.TID 0000.0001)         System time:  0.000000000000000E+000
(PID.TID 0000.0001)     Wall clock time:  0.714316844940186
(PID.TID 0000.0001)          No. starts:           4
(PID.TID 0000.0001)           No. stops:           4
(PID.TID 0000.0001)   Seconds in section "GCHEM_DIAGNOSTICS [GCHEM_FORCING_SEP]":
(PID.TID 0000.0001)           User time:  1.525878906250000E-005
(PID.TID 0000.0001)         System time:  0.000000000000000E+000
(PID.TID 0000.0001)     Wall clock time:  2.312660217285156E-005
(PID.TID 0000.0001)          No. starts:           4
(PID.TID 0000.0001)           No. stops:           4
(PID.TID 0000.0001)   Seconds in section "GUD_CONS [GCHEM_FORCING_SEP]":
(PID.TID 0000.0001)           User time:  0.215682983398438
(PID.TID 0000.0001)         System time:  0.000000000000000E+000
(PID.TID 0000.0001)     Wall clock time:  0.216597318649292
(PID.TID 0000.0001)          No. starts:           8
(PID.TID 0000.0001)           No. stops:           8
(PID.TID 0000.0001)   Seconds in section "GCHEM_SURFMEAN [GCHEM_FORCING_SEP]":
(PID.TID 0000.0001)           User time:  2.002716064453125E-004
(PID.TID 0000.0001)         System time:  0.000000000000000E+000
(PID.TID 0000.0001)     Wall clock time:  2.679824829101562E-004
(PID.TID 0000.0001)          No. starts:           4
(PID.TID 0000.0001)           No. stops:           4
(PID.TID 0000.0001)   Seconds in section "GUD_FORCING [GCHEM_FORCING_SEP]":
(PID.TID 0000.0001)           User time:  0.491312980651855
(PID.TID 0000.0001)         System time:  0.000000000000000E+000
(PID.TID 0000.0001)     Wall clock time:  0.497287988662720
(PID.TID 0000.0001)          No. starts:           4
(PID.TID 0000.0001)           No. stops:           4
(PID.TID 0000.0001)   Seconds in section "GUD_LIGHT [GUD_FORCING]":
(PID.TID 0000.0001)           User time:  0.250197410583496
(PID.TID 0000.0001)         System time:  0.000000000000000E+000
(PID.TID 0000.0001)     Wall clock time:  0.254128932952881
(PID.TID 0000.0001)          No. starts:           4
(PID.TID 0000.0001)           No. stops:           4
(PID.TID 0000.0001)   Seconds in section "GUD_SURFFORCING [GUD_FORCING]":
(PID.TID 0000.0001)           User time:  1.617431640625000E-002
(PID.TID 0000.0001)         System time:  0.000000000000000E+000
(PID.TID 0000.0001)     Wall clock time:  1.618003845214844E-002
(PID.TID 0000.0001)          No. starts:           4
(PID.TID 0000.0001)           No. stops:           4
(PID.TID 0000.0001)   Seconds in section "GUD_FE_CHEM [GUD_FORCING]":
(PID.TID 0000.0001)           User time:  2.913475036621094E-003
(PID.TID 0000.0001)         System time:  0.000000000000000E+000
(PID.TID 0000.0001)     Wall clock time:  2.957344055175781E-003
(PID.TID 0000.0001)          No. starts:           8
(PID.TID 0000.0001)           No. stops:           8
(PID.TID 0000.0001)   Seconds in section "GUD_FE_DUST [GUD_FORCING]":
(PID.TID 0000.0001)           User time:  2.002716064453125E-005
(PID.TID 0000.0001)         System time:  0.000000000000000E+000
(PID.TID 0000.0001)     Wall clock time:  4.100799560546875E-005
(PID.TID 0000.0001)          No. starts:           4
(PID.TID 0000.0001)           No. stops:           4
(PID.TID 0000.0001)   Seconds in section "GUD_FE_SCAV [GUD_FORCING]":
(PID.TID 0000.0001)           User time:  1.338005065917969E-003
(PID.TID 0000.0001)         System time:  0.000000000000000E+000
(PID.TID 0000.0001)     Wall clock time:  1.347303390502930E-003
(PID.TID 0000.0001)          No. starts:           4
(PID.TID 0000.0001)           No. stops:           4
(PID.TID 0000.0001)   Seconds in section "GUD_FE_SED [GUD_FORCING]":
(PID.TID 0000.0001)           User time:  4.806518554687500E-004
(PID.TID 0000.0001)         System time:  0.000000000000000E+000
(PID.TID 0000.0001)     Wall clock time:  2.977848052978516E-004
(PID.TID 0000.0001)          No. starts:           4
(PID.TID 0000.0001)           No. stops:           4
(PID.TID 0000.0001)   Seconds in section "GUD_MODEL [GUD_FORCING]":
(PID.TID 0000.0001)           User time:  8.942604064941406E-002
(PID.TID 0000.0001)         System time:  0.000000000000000E+000
(PID.TID 0000.0001)     Wall clock time:  8.956885337829590E-002
(PID.TID 0000.0001)          No. starts:           4
(PID.TID 0000.0001)           No. stops:           4
(PID.TID 0000.0001)   Seconds in section "GUD_SINKING [GUD_FORCING]":
(PID.TID 0000.0001)           User time:  5.482578277587891E-002
(PID.TID 0000.0001)         System time:  0.000000000000000E+000
(PID.TID 0000.0001)     Wall clock time:  5.479073524475098E-002
(PID.TID 0000.0001)          No. starts:           4
(PID.TID 0000.0001)           No. stops:           4
(PID.TID 0000.0001)   Seconds in section "GUD_STEP [GUD_FORCING]":
(PID.TID 0000.0001)           User time:  1.764392852783203E-002
(PID.TID 0000.0001)         System time:  0.000000000000000E+000
(PID.TID 0000.0001)     Wall clock time:  1.757812500000000E-002
(PID.TID 0000.0001)          No. starts:           4
(PID.TID 0000.0001)           No. stops:           4
(PID.TID 0000.0001)   Seconds in section "DIAGS_FILL [GUD_FORCING]":
(PID.TID 0000.0001)           User time:  5.348205566406250E-002
(PID.TID 0000.0001)         System time:  0.000000000000000E+000
(PID.TID 0000.0001)     Wall clock time:  5.343103408813477E-002
(PID.TID 0000.0001)          No. starts:           4
(PID.TID 0000.0001)           No. stops:           4
(PID.TID 0000.0001)   Seconds in section "BLOCKING_EXCHANGES  [FORWARD_STEP]":
(PID.TID 0000.0001)           User time:  0.247767448425293
(PID.TID 0000.0001)         System time:  0.000000000000000E+000
(PID.TID 0000.0001)     Wall clock time:  0.248723983764648
(PID.TID 0000.0001)          No. starts:           4
(PID.TID 0000.0001)           No. stops:           4
(PID.TID 0000.0001)   Seconds in section "DO_STATEVARS_TAVE   [FORWARD_STEP]":
(PID.TID 0000.0001)           User time:  4.196166992187500E-005
(PID.TID 0000.0001)         System time:  0.000000000000000E+000
(PID.TID 0000.0001)     Wall clock time:  2.408027648925781E-005
(PID.TID 0000.0001)          No. starts:           4
(PID.TID 0000.0001)           No. stops:           4
(PID.TID 0000.0001)   Seconds in section "MONITOR             [FORWARD_STEP]":
(PID.TID 0000.0001)           User time:  2.889060974121094E-002
(PID.TID 0000.0001)         System time:  0.000000000000000E+000
(PID.TID 0000.0001)     Wall clock time:  2.981591224670410E-002
(PID.TID 0000.0001)          No. starts:           4
(PID.TID 0000.0001)           No. stops:           4
(PID.TID 0000.0001)   Seconds in section "DO_THE_MODEL_IO     [FORWARD_STEP]":
(PID.TID 0000.0001)           User time:   9.19621658325195
(PID.TID 0000.0001)         System time:  0.000000000000000E+000
(PID.TID 0000.0001)     Wall clock time:   10.9546689987183
(PID.TID 0000.0001)          No. starts:           4
(PID.TID 0000.0001)           No. stops:           4
(PID.TID 0000.0001)   Seconds in section "PTRACERS_RESET      [FORWARD_STEP]":
(PID.TID 0000.0001)           User time:  2.861022949218750E-005
(PID.TID 0000.0001)         System time:  0.000000000000000E+000
(PID.TID 0000.0001)     Wall clock time:  5.197525024414062E-005
(PID.TID 0000.0001)          No. starts:           4
(PID.TID 0000.0001)           No. stops:           4
(PID.TID 0000.0001)   Seconds in section "DO_WRITE_PICKUP     [FORWARD_STEP]":
(PID.TID 0000.0001)           User time:   2.46049976348877
(PID.TID 0000.0001)         System time:  0.000000000000000E+000
(PID.TID 0000.0001)     Wall clock time:   3.51005101203918
(PID.TID 0000.0001)          No. starts:           4
(PID.TID 0000.0001)           No. stops:           4
(PID.TID 0000.0001) // ======================================================
(PID.TID 0000.0001) // Tile <-> Tile communication statistics
(PID.TID 0000.0001) // ======================================================
(PID.TID 0000.0001) // o Tile number: 000001
(PID.TID 0000.0001) //         No. X exchanges =              0
(PID.TID 0000.0001) //            Max. X spins =              0
(PID.TID 0000.0001) //            Min. X spins =     1000000000
(PID.TID 0000.0001) //          Total. X spins =              0
(PID.TID 0000.0001) //            Avg. X spins =       0.00E+00
(PID.TID 0000.0001) //         No. Y exchanges =              0
(PID.TID 0000.0001) //            Max. Y spins =              0
(PID.TID 0000.0001) //            Min. Y spins =     1000000000
(PID.TID 0000.0001) //          Total. Y spins =              0
(PID.TID 0000.0001) //            Avg. Y spins =       0.00E+00
(PID.TID 0000.0001) // o Thread number: 000001
(PID.TID 0000.0001) //            No. barriers =          13892
(PID.TID 0000.0001) //      Max. barrier spins =              1
(PID.TID 0000.0001) //      Min. barrier spins =              1
(PID.TID 0000.0001) //     Total barrier spins =          13892
(PID.TID 0000.0001) //      Avg. barrier spins =       1.00E+00
PROGRAM MAIN: Execution ended Normally
